                                                                
version 3
run VoIPWithHandover-0-20250716-21:15:07-18592
attr configname VoIPWithHandover
attr datetime 20250716-21:15:07
attr datetimef 20250716-211507
attr experiment VoIPWithHandover
attr inifile omnetpp.ini
attr iterationvars ""
attr iterationvarsd ""
attr iterationvarsf ""
attr measurement ""
attr network abcd.simulations.Hybrid
attr processid 18592
attr repetition 0
attr replication #0
attr resultdir results
attr runnumber 0
attr seedset 0
config image-path ../../../inet4.5/images;../../../simu5g/images
config extends General
config **.ue[*].mobility.typename StationaryMobility
config **.ue[*].mobility.speed 5kmph
config **.ue[*].mobility.angle 45deg
config **.ue[*].mobility.initialX 450m
config **.ue[*].mobility.initialY 450m
config **.eNB.mobility.typename StationaryMobility
config **.eNB.mobility.initialX 400m
config **.eNB.mobility.initialY 350m
config **.accessPoint.mobility.typename StationaryMobility
config **.accessPoint.mobility.initialX 600m
config **.accessPoint.mobility.initialY 350m
config **.ue[*].lteNic.pdcp.qosEnabled true
config **.eNodeB.nic.pdcp.qosEnabled true
config **.ue[*].wlan.mac.qos.typename Ieee80211eQosMac
config **.ue[*].handoverManager.measurementInterval 0.5s
config **.ue[*].handoverManager.lteRsrpThreshold -95dBm
config **.ue[*].handoverManager.wifiRssiThreshold -75dBm
config **.ue[*].handoverManager.hysteresis 5dB
config **.ue[*].handoverManager.handoverDelay 0.2s
config **.ue[*].handoverManager.enableLteToWifi true
config **.ue[*].handoverManager.enableWifiToLte true
config **.ue[*].handoverManager.logHandovers true
config **.ue[*].numApps 2
config **.ue[*].app[*].typename VoIPSenderWithHandover
config **.ue[*].app[0].destAddress "\"server\""
config **.ue[*].app[0].destPort 3000
config **.ue[*].app[0].localPort 3088
config **.ue[*].app[0].packetSize 160B
config **.ue[*].app[0].packetInterval 20ms
config **.ue[*].app[0].startTime 1s
config **.ue[*].app[0].stopTime 55s
config **.ue[*].app[0].enableSessionContinuity true
config **.ue[*].app[0].bufferTime 2s
config **.ue[*].app[0].maxRetransmissions 3
config **.ue[*].app[0].handoverDetectionInterval 0.1s
config **.ue[*].app[1].typename VoIPReceiverWithHandover
config **.ue[*].app[1].localPort 3001
config **.ue[*].app[1].enableSessionContinuity true
config **.ue[*].app[1].jitterBufferSize 0.1s
config **.ue[*].app[1].handoverTimeout 1s
config **.server.numApps 2
config **.server.app[*].typename VoIPSenderWithHandover
config **.server.app[0].destAddress "\"ue[0]\""
config **.server.app[0].destPort 3001
config **.server.app[0].localPort 3089
config **.server.app[0].packetSize 160B
config **.server.app[0].packetInterval 20ms
config **.server.app[0].startTime 1s
config **.server.app[0].stopTime 55s
config **.server.app[0].enableSessionContinuity true
config **.server.app[0].bufferTime 2s
config **.server.app[0].maxRetransmissions 3
config **.server.app[1].typename VoIPReceiverWithHandover
config **.server.app[1].localPort 3000
config **.server.app[1].enableSessionContinuity true
config **.server.app[1].jitterBufferSize 0.1s
config **.server.app[1].handoverTimeout 1s
config **.ue[*].app[*].**.result-recording-modes +vector
config **.server.app[*].**.result-recording-modes +vector
config **.ue[*].handoverManager.**.result-recording-modes +vector
config sim-time-limit 60s
config **.vector-recording true
config **.scalar-recording true
config *.**.radio.antenna.mobilityModule "\"^.^.^.mobility\""
config network abcd.simulations.Hybrid
config **.cmdenv-log-level INFO
config **.ue[*].wlan[0].ipv4.assignAddress false
config **.ue[*].wlan[0].ipv4.useDhcp true
config **.accessPoint.wlan[0].ipv4.dhcpServer.typename DhcpServer
config **.wifiRouter.ipv4.routingProtocol "\"RIP\""
config **.ue[*].ipv4.routingProtocol "\"RIP\""
config **.server.ipv4.routingProtocol "\"RIP\""
config **.ipv4.RIP.startupTime 1s
config **.ue[*].cellularNic.interfaceName "\"lte0\""
config **.ue[*].wlan[0].interfaceName "\"wlan0\""
config *.numUe 1
config **.ueTxPower 26
config **.eNodeBTxPower 40
config **.ue[*].masterId 1
config **.ue[*].macCellId 1
config **.mobility.constraintAreaMinZ 0m
config **.mobility.constraintAreaMaxZ 0m
config **.radioMedium.typename Ieee80211ScalarRadioMedium
config **.wlan[*].radio.typename Ieee80211ScalarRadio
config **.accessPoint.wlan[*].radio.typename Ieee80211ScalarRadio

vector 0 Hybrid.server.ppp[0].queue queueLength:vector ETV
attr autoWarmupFilter false
attr interpolationmode sample-hold
attr recordingmode vector
attr source "warmup(atomic(constant0(packetPushEnded) + count(packetPushStarted) - count(packetPulled) - count(packetRemoved) - count(packetDropped)))"
attr title "queue length"
attr unit pk
vector 1 Hybrid.server.ppp[0].queue queueBitLength:vector ETV
attr autoWarmupFilter false
attr interpolationmode sample-hold
attr recordingmode vector
attr source "warmup(atomic(constant0(packetPushEnded) + sum(packetLength(packetPushStarted)) - sum(packetLength(packetPulled)) - sum(packetLength(packetRemoved)) - sum(packetLength(packetDropped))))"
attr title "queue bit length"
attr unit b
vector 2 Hybrid.server.ppp[0].ppp transmissionState:vector ETV
attr interpolationmode sample-hold
attr recordingmode vector
attr source transmissionStateChanged
attr title "tx state"
vector 3 Hybrid.server.udp passedUpPk:vector(count) ETV
attr interpolationmode none
attr recordingmode vector(count)
attr source packetSentToUpper
attr title "packets passed up, count"
vector 4 Hybrid.server.udp droppedPkWrongPort:vector(count) ETV
attr interpolationmode none
attr recordingmode vector(count)
attr source packetDropReasonIsNoPortFound(packetDropped)
attr title "packets dropped (wrong port), count"
vector 5 Hybrid.server.udp droppedPkBadChecksum:vector(count) ETV
attr interpolationmode none
attr recordingmode vector(count)
attr source packetDropReasonIsIncorrectlyReceived(packetDropped)
attr title "packets dropped (checksum error), count"
vector 6 Hybrid.router.ppp[0].queue queueLength:vector ETV
attr autoWarmupFilter false
attr interpolationmode sample-hold
attr recordingmode vector
attr source "warmup(atomic(constant0(packetPushEnded) + count(packetPushStarted) - count(packetPulled) - count(packetRemoved) - count(packetDropped)))"
attr title "queue length"
attr unit pk
vector 7 Hybrid.router.ppp[0].queue queueBitLength:vector ETV
attr autoWarmupFilter false
attr interpolationmode sample-hold
attr recordingmode vector
attr source "warmup(atomic(constant0(packetPushEnded) + sum(packetLength(packetPushStarted)) - sum(packetLength(packetPulled)) - sum(packetLength(packetRemoved)) - sum(packetLength(packetDropped))))"
attr title "queue bit length"
attr unit b
vector 8 Hybrid.router.ppp[0].ppp transmissionState:vector ETV
attr interpolationmode sample-hold
attr recordingmode vector
attr source transmissionStateChanged
attr title "tx state"
vector 9 Hybrid.router.ppp[1].queue queueLength:vector ETV
attr autoWarmupFilter false
attr interpolationmode sample-hold
attr recordingmode vector
attr source "warmup(atomic(constant0(packetPushEnded) + count(packetPushStarted) - count(packetPulled) - count(packetRemoved) - count(packetDropped)))"
attr title "queue length"
attr unit pk
vector 10 Hybrid.router.ppp[1].queue queueBitLength:vector ETV
attr autoWarmupFilter false
attr interpolationmode sample-hold
attr recordingmode vector
attr source "warmup(atomic(constant0(packetPushEnded) + sum(packetLength(packetPushStarted)) - sum(packetLength(packetPulled)) - sum(packetLength(packetRemoved)) - sum(packetLength(packetDropped))))"
attr title "queue bit length"
attr unit b
vector 11 Hybrid.router.ppp[1].ppp transmissionState:vector ETV
attr interpolationmode sample-hold
attr recordingmode vector
attr source transmissionStateChanged
attr title "tx state"
vector 12 Hybrid.pgw.ppp[0].queue queueLength:vector ETV
attr autoWarmupFilter false
attr interpolationmode sample-hold
attr recordingmode vector
attr source "warmup(atomic(constant0(packetPushEnded) + count(packetPushStarted) - count(packetPulled) - count(packetRemoved) - count(packetDropped)))"
attr title "queue length"
attr unit pk
vector 13 Hybrid.pgw.ppp[0].queue queueBitLength:vector ETV
attr autoWarmupFilter false
attr interpolationmode sample-hold
attr recordingmode vector
attr source "warmup(atomic(constant0(packetPushEnded) + sum(packetLength(packetPushStarted)) - sum(packetLength(packetPulled)) - sum(packetLength(packetRemoved)) - sum(packetLength(packetDropped))))"
attr title "queue bit length"
attr unit b
vector 14 Hybrid.pgw.ppp[0].ppp transmissionState:vector ETV
attr interpolationmode sample-hold
attr recordingmode vector
attr source transmissionStateChanged
attr title "tx state"
vector 15 Hybrid.pgw.pppIf.queue queueLength:vector ETV
attr autoWarmupFilter false
attr interpolationmode sample-hold
attr recordingmode vector
attr source "warmup(atomic(constant0(packetPushEnded) + count(packetPushStarted) - count(packetPulled) - count(packetRemoved) - count(packetDropped)))"
attr title "queue length"
attr unit pk
vector 16 Hybrid.pgw.pppIf.queue queueBitLength:vector ETV
attr autoWarmupFilter false
attr interpolationmode sample-hold
attr recordingmode vector
attr source "warmup(atomic(constant0(packetPushEnded) + sum(packetLength(packetPushStarted)) - sum(packetLength(packetPulled)) - sum(packetLength(packetRemoved)) - sum(packetLength(packetDropped))))"
attr title "queue bit length"
attr unit b
vector 17 Hybrid.pgw.pppIf.ppp transmissionState:vector ETV
attr interpolationmode sample-hold
attr recordingmode vector
attr source transmissionStateChanged
attr title "tx state"
vector 18 Hybrid.pgw.udp passedUpPk:vector(count) ETV
attr interpolationmode none
attr recordingmode vector(count)
attr source packetSentToUpper
attr title "packets passed up, count"
vector 19 Hybrid.pgw.udp droppedPkWrongPort:vector(count) ETV
attr interpolationmode none
attr recordingmode vector(count)
attr source packetDropReasonIsNoPortFound(packetDropped)
attr title "packets dropped (wrong port), count"
vector 20 Hybrid.pgw.udp droppedPkBadChecksum:vector(count) ETV
attr interpolationmode none
attr recordingmode vector(count)
attr source packetDropReasonIsIncorrectlyReceived(packetDropped)
attr title "packets dropped (checksum error), count"
vector 21 Hybrid.eNB.pppIf.queue queueLength:vector ETV
attr autoWarmupFilter false
attr interpolationmode sample-hold
attr recordingmode vector
attr source "warmup(atomic(constant0(packetPushEnded) + count(packetPushStarted) - count(packetPulled) - count(packetRemoved) - count(packetDropped)))"
attr title "queue length"
attr unit pk
vector 22 Hybrid.eNB.pppIf.queue queueBitLength:vector ETV
attr autoWarmupFilter false
attr interpolationmode sample-hold
attr recordingmode vector
attr source "warmup(atomic(constant0(packetPushEnded) + sum(packetLength(packetPushStarted)) - sum(packetLength(packetPulled)) - sum(packetLength(packetRemoved)) - sum(packetLength(packetDropped))))"
attr title "queue bit length"
attr unit b
vector 23 Hybrid.eNB.pppIf.ppp transmissionState:vector ETV
attr interpolationmode sample-hold
attr recordingmode vector
attr source transmissionStateChanged
attr title "tx state"
vector 24 Hybrid.eNB.pppMEHostIf.queue queueLength:vector ETV
attr autoWarmupFilter false
attr interpolationmode sample-hold
attr recordingmode vector
attr source "warmup(atomic(constant0(packetPushEnded) + count(packetPushStarted) - count(packetPulled) - count(packetRemoved) - count(packetDropped)))"
attr title "queue length"
attr unit pk
vector 25 Hybrid.eNB.pppMEHostIf.queue queueBitLength:vector ETV
attr autoWarmupFilter false
attr interpolationmode sample-hold
attr recordingmode vector
attr source "warmup(atomic(constant0(packetPushEnded) + sum(packetLength(packetPushStarted)) - sum(packetLength(packetPulled)) - sum(packetLength(packetRemoved)) - sum(packetLength(packetDropped))))"
attr title "queue bit length"
attr unit b
vector 26 Hybrid.eNB.pppMEHostIf.ppp transmissionState:vector ETV
attr interpolationmode sample-hold
attr recordingmode vector
attr source transmissionStateChanged
attr title "tx state"
vector 27 Hybrid.eNB.udp passedUpPk:vector(count) ETV
attr interpolationmode none
attr recordingmode vector(count)
attr source packetSentToUpper
attr title "packets passed up, count"
vector 28 Hybrid.eNB.udp droppedPkWrongPort:vector(count) ETV
attr interpolationmode none
attr recordingmode vector(count)
attr source packetDropReasonIsNoPortFound(packetDropped)
attr title "packets dropped (wrong port), count"
vector 29 Hybrid.eNB.udp droppedPkBadChecksum:vector(count) ETV
attr interpolationmode none
attr recordingmode vector(count)
attr source packetDropReasonIsIncorrectlyReceived(packetDropped)
attr title "packets dropped (checksum error), count"
vector 30 Hybrid.ue[0].wlan[0].mac.dcf frameSequenceActive:vector ETV
attr autoWarmupFilter false
attr interpolationmode sample-hold
attr recordingmode vector
attr source warmup(count(frameSequenceStarted)-count(frameSequenceFinished))
attr title "frame sequence active"
vector 31 Hybrid.ue[0].wlan[0].mac.dcf.channelAccess.pendingQueue queueLength:vector ETV
attr autoWarmupFilter false
attr interpolationmode sample-hold
attr recordingmode vector
attr source "warmup(atomic(constant0(packetPushEnded) + count(packetPushStarted) - count(packetPulled) - count(packetRemoved) - count(packetDropped)))"
attr title "queue length"
attr unit pk
vector 32 Hybrid.ue[0].wlan[0].mac.dcf.channelAccess.pendingQueue queueBitLength:vector ETV
attr autoWarmupFilter false
attr interpolationmode sample-hold
attr recordingmode vector
attr source "warmup(atomic(constant0(packetPushEnded) + sum(packetLength(packetPushStarted)) - sum(packetLength(packetPulled)) - sum(packetLength(packetRemoved)) - sum(packetLength(packetDropped))))"
attr title "queue bit length"
attr unit b
vector 33 Hybrid.ue[0].wlan[0].mac.dcf.channelAccess.inProgressFrames queueLength:vector ETV
attr autoWarmupFilter false
attr interpolationmode sample-hold
attr recordingmode vector
attr source "warmup(count(packetEnqueued) - count(packetDequeued))"
attr title "queue length"
vector 34 Hybrid.ue[0].wlan[0].mac.dcf.channelAccess.contention backoffActive:vector ETV
attr autoWarmupFilter false
attr interpolationmode sample-hold
attr recordingmode vector
attr source warmup(count(backoffStarted)-count(backoffStopped))
attr title "backoff active"
vector 35 Hybrid.ue[0].udp passedUpPk:vector(count) ETV
attr interpolationmode none
attr recordingmode vector(count)
attr source packetSentToUpper
attr title "packets passed up, count"
vector 36 Hybrid.ue[0].udp droppedPkWrongPort:vector(count) ETV
attr interpolationmode none
attr recordingmode vector(count)
attr source packetDropReasonIsNoPortFound(packetDropped)
attr title "packets dropped (wrong port), count"
vector 37 Hybrid.ue[0].udp droppedPkBadChecksum:vector(count) ETV
attr interpolationmode none
attr recordingmode vector(count)
attr source packetDropReasonIsIncorrectlyReceived(packetDropped)
attr title "packets dropped (checksum error), count"
vector 38 Hybrid.internetCloud.ppp[0].queue queueLength:vector ETV
attr autoWarmupFilter false
attr interpolationmode sample-hold
attr recordingmode vector
attr source "warmup(atomic(constant0(packetPushEnded) + count(packetPushStarted) - count(packetPulled) - count(packetRemoved) - count(packetDropped)))"
attr title "queue length"
attr unit pk
vector 39 Hybrid.internetCloud.ppp[0].queue queueBitLength:vector ETV
attr autoWarmupFilter false
attr interpolationmode sample-hold
attr recordingmode vector
attr source "warmup(atomic(constant0(packetPushEnded) + sum(packetLength(packetPushStarted)) - sum(packetLength(packetPulled)) - sum(packetLength(packetRemoved)) - sum(packetLength(packetDropped))))"
attr title "queue bit length"
attr unit b
vector 40 Hybrid.internetCloud.ppp[0].ppp transmissionState:vector ETV
attr interpolationmode sample-hold
attr recordingmode vector
attr source transmissionStateChanged
attr title "tx state"
vector 41 Hybrid.internetCloud.ppp[1].queue queueLength:vector ETV
attr autoWarmupFilter false
attr interpolationmode sample-hold
attr recordingmode vector
attr source "warmup(atomic(constant0(packetPushEnded) + count(packetPushStarted) - count(packetPulled) - count(packetRemoved) - count(packetDropped)))"
attr title "queue length"
attr unit pk
vector 42 Hybrid.internetCloud.ppp[1].queue queueBitLength:vector ETV
