version 3
run VoIP_AP_NoQoS-0-20250715-18:43:49-14488
attr configname VoIP_AP_NoQoS
attr datetime 20250715-18:43:49
attr datetimef 20250715-184349
attr experiment VoIP_AP_NoQoS
attr inifile static_ap.ini
attr iterationvars $numclients=1
attr iterationvarsd numclients=1
attr iterationvarsf numclients=1-
attr measurement $numclients=1
attr network abcd.simulations.StaticAP
attr processid 14488
attr repetition 0
attr replication #0
attr resultdir results/VoIP_AP_NoQoS
attr runnumber 0
attr seedset 0
itervar numclients 1
config image-path ../../../inet4.5/images;../../../simu5g/images
config result-dir results/VoIP_AP_NoQoS
config **.client[*].app[*].*.endToEndDelay:vector.vector-recording true
config **.client[*].app[*].*.jitter:vector.vector-recording true
config **.client[*].app[*].*.packetLoss:vector.vector-recording true
config **.server.app[*].*.endToEndDelay:vector.vector-recording true
config **.server.app[*].*.jitter:vector.vector-recording true
config **.server.app[*].*.packetLoss:vector.vector-recording true
config **.VoIPReceiver.endToEndDelay:vector.vector-recording true
config **.VoIPReceiver.jitter:vector.vector-recording true
config **.numclient 1
config *.client[*].mobility.initFromDisplayString true
config *.client[*].mobility.initialX uniform(500m,500m)
config *.client[*].mobility.initialY uniform(500m,500m)
config *.client[*].mobility.initialZ 0m
config *.client[*].mobility.speed 0mps
config *.client[*].mobility.typename StationaryMobility
config *.client[*].numApps 3
config *.server.numApps 3
config *.client[*].app[2].typename UdpBasicApp
config *.client[*].app[2].destAddresses "\"server\""
config *.client[*].app[2].destPort 5000
config *.client[*].app[2].messageLength 1024B
config *.client[*].app[2].sendInterval 0.01s
config *.client[*].app[2].startTime "uniform(0s, 0.1s)"
config *.server.app[2].typename UdpSink
config *.server.app[2].localPort 5000
config *.server.app[0].typename VoIPReceiver
config *.server.app[0].localPort 4000
config *.client[*].app[1].typename VoIPSender
config *.client[*].app[1].PacketSize 320
config *.client[*].app[1].destAddress "\"server\""
config *.client[*].app[1].destPort 4000
config *.client[*].app[1].localPort 4088
config *.client[*].app[1].sendInterval 0.01ms
config *.client[*].app[1].startTime uniform(0s,0.02s)
config *.client[*].app[0].typename VoIPReceiver
config *.client[*].app[0].localPort 3000
config *.server.app[1].typename VoIPSender
config *.server.app[1].PacketSize 320
config *.server.app[1].destAddress "\"client[0]\""
config *.server.app[1].destPort 3000
config *.server.app[1].localPort 3088
config *.server.app[1].sendInterval 0.01ms
config *.server.app[1].startTime uniform(0s,0.02s)
config *.wifiRouter.eth[*].queue.*.packetDropped.scalar-recording true
config *.mac.*.queueingTime.scalar-recording true
config *.mac.*.txPk.scalar-recording true
config *.mac.*.rxPkOk.scalar-recording true
config *.app[*].playoutDelay.scalar-recording true
config *.app[*].playoutLoss.scalar-recording true
config *.app[*].mosScore.scalar-recording true
config network abcd.simulations.StaticAP
config sim-time-limit 20s
config warmup-period 1.5s
config **.vector-recording true
config **.scalar-recording true
config **.bin-recording true
config **.mobility.constraintAreaMinZ 0m
config **.mobility.constraintAreaMaxZ 0m
config **.mobility.initFromDisplayString true
config *.visualizer.*.mediumVisualizer.displaySignals true
config *.visualizer.*.mediumVisualizer.displayTransmissions true
config *.visualizer.*.mediumVisualizer.displayReceptions true
config *.visualizer.*.networkRouteVisualizer.displayRoutes trclient
config *.visualizer.*.networkRouteVisualizer.packetFilter "\"*VoIP*\""
config *.visualizer.*.networkRouteVisualizer.lineColor "\"blue\""
config *.visualizer.*.mobilityVisualizer.displayVelocities true
config *.visualizer.*.mobilityVisualizer.displayMovementTrails true
config *.visualizer.*.interfaceTableVisualizer.displayInterfaceTables true
config *.visualizer.*.ieee80211Visualizer.displayAssociations true
config *.visualizer.mediumVisualizer.displaySignals true
config *.radioMedium.backgroundNoise.power -100dBm
config *.accessPoint.wlan[0].radio.transmitter.power 4mW
config *.ccessPoint.wlan[0].radio.transmitter.communicationRange 200m
config *.accessPoint.wlan[0].radio.receiver.sensitivity -95dBm
config *.wifiRouter.eth[*].queue.typename DropTailQueue
config *.wifiRouter.eth[*].queue.packetCapacity 100
config *.wifiRouter.eth[*].queue.frameCapacity 100
config *.wifiRouter.eth[*].queue.packetDropperFunction "\"uniform(0, 1) < 0.02\""

par StaticAP.server.ethg$o[0].channel typename "\"inet.node.ethernet.Eth10G\""
par StaticAP.server.ethg$o[0].channel disabled false
attr mutable ""
par StaticAP.server.ethg$o[0].channel delay 5e-08s
attr mutable ""
attr unit s
par StaticAP.server.ethg$o[0].channel datarate 1e+10bps
attr mutable ""
attr unit bps
par StaticAP.server.ethg$o[0].channel ber 0
attr mutable ""
par StaticAP.server.ethg$o[0].channel per 0
attr mutable ""
par StaticAP.server.ethg$o[0].channel length 10m
attr unit m
par StaticAP.wifiRouter.ethg$o[0].channel typename "\"inet.node.ethernet.Eth10G\""
par StaticAP.wifiRouter.ethg$o[0].channel disabled false
attr mutable ""
par StaticAP.wifiRouter.ethg$o[0].channel delay 5e-08s
attr mutable ""
attr unit s
par StaticAP.wifiRouter.ethg$o[0].channel datarate 1e+10bps
attr mutable ""
attr unit bps
par StaticAP.wifiRouter.ethg$o[0].channel ber 0
attr mutable ""
par StaticAP.wifiRouter.ethg$o[0].channel per 0
attr mutable ""
par StaticAP.wifiRouter.ethg$o[0].channel length 10m
attr unit m
par StaticAP.wifiRouter.ethg$o[1].channel typename "\"inet.node.ethernet.Eth10G\""
par StaticAP.wifiRouter.ethg$o[1].channel disabled false
attr mutable ""
par StaticAP.wifiRouter.ethg$o[1].channel delay 5e-08s
attr mutable ""
attr unit s
par StaticAP.wifiRouter.ethg$o[1].channel datarate 1e+10bps
attr mutable ""
attr unit bps
par StaticAP.wifiRouter.ethg$o[1].channel ber 0
attr mutable ""
par StaticAP.wifiRouter.ethg$o[1].channel per 0
attr mutable ""
par StaticAP.wifiRouter.ethg$o[1].channel length 10m
attr unit m
par StaticAP.accessPoint.ethg$o[0].channel typename "\"inet.node.ethernet.Eth10G\""
par StaticAP.accessPoint.ethg$o[0].channel disabled false
attr mutable ""
par StaticAP.accessPoint.ethg$o[0].channel delay 5e-08s
attr mutable ""
attr unit s
par StaticAP.accessPoint.ethg$o[0].channel datarate 1e+10bps
attr mutable ""
attr unit bps
par StaticAP.accessPoint.ethg$o[0].channel ber 0
attr mutable ""
par StaticAP.accessPoint.ethg$o[0].channel per 0
attr mutable ""
par StaticAP.accessPoint.ethg$o[0].channel length 10m
attr unit m
par StaticAP.visualizer.sceneVisualizer typename "\"inet.visualizer.canvas.scene.SceneCanvasVisualizer\""
par StaticAP.visualizer.sceneVisualizer visualizationTargetModule "\"^.^\""
par StaticAP.visualizer.sceneVisualizer visualizationSubjectModule "\"^.^\""
par StaticAP.visualizer.sceneVisualizer tags "\"\""
par StaticAP.visualizer.sceneVisualizer physicalEnvironmentModule "\"physicalEnvironment\""
par StaticAP.visualizer.sceneVisualizer networkNodeVisualizerModule "\"^.networkNodeVisualizer\""
par StaticAP.visualizer.sceneVisualizer axisLength "nan m"
attr mutable ""
attr unit m
par StaticAP.visualizer.sceneVisualizer animationSpeed 0
par StaticAP.visualizer.sceneVisualizer sceneMinX "nan m"
attr unit m
par StaticAP.visualizer.sceneVisualizer sceneMinY "nan m"
attr unit m
par StaticAP.visualizer.sceneVisualizer sceneMinZ "nan m"
attr unit m
par StaticAP.visualizer.sceneVisualizer sceneMaxX "nan m"
attr unit m
par StaticAP.visualizer.sceneVisualizer sceneMaxY "nan m"
attr unit m
par StaticAP.visualizer.sceneVisualizer sceneMaxZ "nan m"
attr unit m
par StaticAP.visualizer.sceneVisualizer zIndex 0
par StaticAP.visualizer.sceneVisualizer viewAngle "\"x right y down z out\""
attr mutable ""
par StaticAP.visualizer.sceneVisualizer viewScale "\"1 1\""
attr mutable ""
par StaticAP.visualizer.sceneVisualizer viewTranslation "\"0 0\""
attr mutable ""
par StaticAP.visualizer.sceneVisualizer descriptionFigure "\"\""
par StaticAP.visualizer.physicalEnvironmentVisualizer typename "\"inet.visualizer.canvas.environment.PhysicalEnvironmentCanvasVisualizer\""
par StaticAP.visualizer.physicalEnvironmentVisualizer visualizationTargetModule "\"^.^\""
par StaticAP.visualizer.physicalEnvironmentVisualizer visualizationSubjectModule "\"^.^\""
par StaticAP.visualizer.physicalEnvironmentVisualizer tags "\"\""
par StaticAP.visualizer.physicalEnvironmentVisualizer physicalEnvironmentModule "\"physicalEnvironment\""
par StaticAP.visualizer.physicalEnvironmentVisualizer displayObjects true
par StaticAP.visualizer.physicalEnvironmentVisualizer zIndex 0
par StaticAP.visualizer.networkNodeVisualizer typename "\"inet.visualizer.canvas.scene.NetworkNodeCanvasVisualizer\""
par StaticAP.visualizer.networkNodeVisualizer visualizationTargetModule "\"^.^\""
par StaticAP.visualizer.networkNodeVisualizer visualizationSubjectModule "\"^.^\""
par StaticAP.visualizer.networkNodeVisualizer tags "\"\""
par StaticAP.visualizer.networkNodeVisualizer nodeFilter "\"*\""
attr mutable ""
par StaticAP.visualizer.networkNodeVisualizer annotationSpacing 4
par StaticAP.visualizer.networkNodeVisualizer placementPenalty 10
par StaticAP.visualizer.networkNodeVisualizer zIndex 0
par StaticAP.visualizer.networkConnectionVisualizer typename "\"inet.visualizer.canvas.scene.NetworkConnectionCanvasVisualizer\""
par StaticAP.visualizer.networkConnectionVisualizer visualizationTargetModule "\"^.^\""
par StaticAP.visualizer.networkConnectionVisualizer visualizationSubjectModule "\"^.^\""
par StaticAP.visualizer.networkConnectionVisualizer tags "\"\""
par StaticAP.visualizer.networkConnectionVisualizer displayNetworkConnections true
par StaticAP.visualizer.networkConnectionVisualizer nodeFilter "\"\""
attr mutable ""
par StaticAP.visualizer.networkConnectionVisualizer lineColor "\"black\""
par StaticAP.visualizer.networkConnectionVisualizer lineStyle "\"solid\""
par StaticAP.visualizer.networkConnectionVisualizer lineWidth 1
par StaticAP.visualizer.networkConnectionVisualizer zIndex 0
par StaticAP.visualizer.mobilityVisualizer typename "\"inet.visualizer.canvas.mobility.MobilityCanvasVisualizer\""
par StaticAP.visualizer.mobilityVisualizer visualizationTargetModule "\"^.^\""
par StaticAP.visualizer.mobilityVisualizer visualizationSubjectModule "\"^.^\""
par StaticAP.visualizer.mobilityVisualizer tags "\"\""
par StaticAP.visualizer.mobilityVisualizer networkNodeVisualizerModule "\"^.networkNodeVisualizer\""
par StaticAP.visualizer.mobilityVisualizer displayMobility true
par StaticAP.visualizer.mobilityVisualizer animationSpeed 0
par StaticAP.visualizer.mobilityVisualizer moduleFilter "\"**.mobility\""
attr mutable ""
par StaticAP.visualizer.mobilityVisualizer displayPositions false
par StaticAP.visualizer.mobilityVisualizer positionCircleRadius 4
par StaticAP.visualizer.mobilityVisualizer positionCircleLineWidth 1
par StaticAP.visualizer.mobilityVisualizer positionCircleLineColor "\"dark\""
par StaticAP.visualizer.mobilityVisualizer positionCircleFillColor "\"dark\""
par StaticAP.visualizer.mobilityVisualizer displayOrientations false
par StaticAP.visualizer.mobilityVisualizer orientationPieRadius 32
par StaticAP.visualizer.mobilityVisualizer orientationPieSize 0.2
par StaticAP.visualizer.mobilityVisualizer orientationPieOpacity 0.25
par StaticAP.visualizer.mobilityVisualizer orientationLineColor "\"black\""
par StaticAP.visualizer.mobilityVisualizer orientationLineStyle "\"solid\""
par StaticAP.visualizer.mobilityVisualizer orientationLineWidth 1
par StaticAP.visualizer.mobilityVisualizer orientationFillColor "\"blue\""
par StaticAP.visualizer.mobilityVisualizer displayVelocities false
par StaticAP.visualizer.mobilityVisualizer velocityArrowScale 1
par StaticAP.visualizer.mobilityVisualizer velocityLineColor "\"black\""
par StaticAP.visualizer.mobilityVisualizer velocityLineStyle "\"solid\""
par StaticAP.visualizer.mobilityVisualizer velocityLineWidth 1
par StaticAP.visualizer.mobilityVisualizer displayMovementTrails false
par StaticAP.visualizer.mobilityVisualizer movementTrailLineColor "\"dark\""
par StaticAP.visualizer.mobilityVisualizer movementTrailLineStyle "\"solid\""
par StaticAP.visualizer.mobilityVisualizer movementTrailLineWidth 1
par StaticAP.visualizer.mobilityVisualizer trailLength 100
par StaticAP.visualizer.mobilityVisualizer zIndex 0
par StaticAP.visualizer.statisticVisualizer typename "\"inet.visualizer.canvas.common.StatisticCanvasVisualizer\""
par StaticAP.visualizer.statisticVisualizer visualizationTargetModule "\"^.^\""
par StaticAP.visualizer.statisticVisualizer visualizationSubjectModule "\"^.^\""
par StaticAP.visualizer.statisticVisualizer tags "\"\""
par StaticAP.visualizer.statisticVisualizer networkNodeVisualizerModule "\"^.networkNodeVisualizer\""
par StaticAP.visualizer.statisticVisualizer displayStatistics true
par StaticAP.visualizer.statisticVisualizer signalName "\"\""
par StaticAP.visualizer.statisticVisualizer statisticName "\"\""
par StaticAP.visualizer.statisticVisualizer statisticUnit "\"\""
par StaticAP.visualizer.statisticVisualizer statisticExpression "\"\""
par StaticAP.visualizer.statisticVisualizer sourceFilter "\"**\""
attr mutable ""
par StaticAP.visualizer.statisticVisualizer format "\"%n: %v %u\""
attr mutable ""
par StaticAP.visualizer.statisticVisualizer unit "\"\""
par StaticAP.visualizer.statisticVisualizer font "\"<default>\""
par StaticAP.visualizer.statisticVisualizer textColor "\"black\""
par StaticAP.visualizer.statisticVisualizer backgroundColor "\"white\""
par StaticAP.visualizer.statisticVisualizer opacity 1
par StaticAP.visualizer.statisticVisualizer placementHint "\"top\""
par StaticAP.visualizer.statisticVisualizer placementPriority 0
par StaticAP.visualizer.statisticVisualizer zIndex 10
par StaticAP.visualizer.statisticVisualizer propertyName "\"\""
par StaticAP.visualizer.statisticVisualizer propertyIndex "\"\""
par StaticAP.visualizer.infoVisualizer typename "\"inet.visualizer.canvas.common.InfoCanvasVisualizer\""
par StaticAP.visualizer.infoVisualizer visualizationTargetModule "\"^.^\""
par StaticAP.visualizer.infoVisualizer visualizationSubjectModule "\"^.^\""
par StaticAP.visualizer.infoVisualizer tags "\"\""
par StaticAP.visualizer.infoVisualizer networkNodeVisualizerModule "\"^.networkNodeVisualizer\""
par StaticAP.visualizer.infoVisualizer displayInfos true
par StaticAP.visualizer.infoVisualizer modules "\"\""
attr mutable ""
par StaticAP.visualizer.infoVisualizer format "\"%t\""
attr mutable ""
par StaticAP.visualizer.infoVisualizer font "\"<default>\""
par StaticAP.visualizer.infoVisualizer textColor "\"black\""
par StaticAP.visualizer.infoVisualizer backgroundColor "\"white\""
par StaticAP.visualizer.infoVisualizer opacity 1
par StaticAP.visualizer.infoVisualizer placementHint "\"top\""
par StaticAP.visualizer.infoVisualizer placementPriority 0
par StaticAP.visualizer.infoVisualizer zIndex 10
par StaticAP.visualizer.energyStorageVisualizer typename "\"inet.visualizer.canvas.power.EnergyStorageCanvasVisualizer\""
par StaticAP.visualizer.energyStorageVisualizer visualizationTargetModule "\"^.^\""
par StaticAP.visualizer.energyStorageVisualizer visualizationSubjectModule "\"^.^\""
par StaticAP.visualizer.energyStorageVisualizer tags "\"\""
par StaticAP.visualizer.energyStorageVisualizer networkNodeVisualizerModule "\"^.networkNodeVisualizer\""
par StaticAP.visualizer.energyStorageVisualizer displayEnergyStorages false
par StaticAP.visualizer.energyStorageVisualizer energyStorageFilter "\"**\""
par StaticAP.visualizer.energyStorageVisualizer color "\"green\""
par StaticAP.visualizer.energyStorageVisualizer width 8
par StaticAP.visualizer.energyStorageVisualizer height 24
par StaticAP.visualizer.energyStorageVisualizer spacing 2
par StaticAP.visualizer.energyStorageVisualizer placementHint "\"right\""
par StaticAP.visualizer.energyStorageVisualizer placementPriority 0
par StaticAP.visualizer.energyStorageVisualizer zIndex 10
par StaticAP.visualizer.mediumVisualizer typename "\"inet.visualizer.canvas.physicallayer.MediumCanvasVisualizer\""
par StaticAP.visualizer.mediumVisualizer visualizationTargetModule "\"^.^\""
par StaticAP.visualizer.mediumVisualizer visualizationSubjectModule "\"^.^\""
par StaticAP.visualizer.mediumVisualizer tags "\"\""
par StaticAP.visualizer.mediumVisualizer mediumModule "\"radioMedium\""
par StaticAP.visualizer.mediumVisualizer networkNodeVisualizerModule "\"^.networkNodeVisualizer\""
par StaticAP.visualizer.mediumVisualizer nodeFilter "\"*\""
attr mutable ""
par StaticAP.visualizer.mediumVisualizer interfaceFilter "\"*\""
attr mutable ""
par StaticAP.visualizer.mediumVisualizer packetFilter "(omnetpp::cValueHolder)holder: \"*\""
attr mutable ""
par StaticAP.visualizer.mediumVisualizer displaySignals true
par StaticAP.visualizer.mediumVisualizer signalColor "\"dark\""
par StaticAP.visualizer.mediumVisualizer signalPropagationAnimationSpeed "nan "
attr mutable ""
par StaticAP.visualizer.mediumVisualizer signalPropagationAnimationTime 1s
attr unit s
par StaticAP.visualizer.mediumVisualizer signalPropagationAdditionalTime 0s
attr unit s
par StaticAP.visualizer.mediumVisualizer signalTransmissionAnimationSpeed "nan "
attr mutable ""
par StaticAP.visualizer.mediumVisualizer signalTransmissionAnimationTime 1s
attr unit s
par StaticAP.visualizer.mediumVisualizer signalAnimationSpeedChangeTimeMode "\"realTime\""
attr enum realTime,animationTime,simulationTime
par StaticAP.visualizer.mediumVisualizer signalAnimationSpeedChangeTime 1s
attr unit s
par StaticAP.visualizer.mediumVisualizer displaySignalDepartures false
par StaticAP.visualizer.mediumVisualizer signalDepartureImage "\"misc/signal_departure.png\""
par StaticAP.visualizer.mediumVisualizer signalDeparturePlacementHint "\"topCenter\""
par StaticAP.visualizer.mediumVisualizer signalDeparturePlacementPriority 1
par StaticAP.visualizer.mediumVisualizer displaySignalArrivals false
par StaticAP.visualizer.mediumVisualizer signalArrivalImage "\"misc/signal_arrival.png\""
par StaticAP.visualizer.mediumVisualizer signalArrivalPlacementHint "\"topCenter\""
par StaticAP.visualizer.mediumVisualizer signalArrivalPlacementPriority -1
par StaticAP.visualizer.mediumVisualizer displayCommunicationRanges false
par StaticAP.visualizer.mediumVisualizer communicationRangeLineColor "\"blue\""
par StaticAP.visualizer.mediumVisualizer communicationRangeLineStyle "\"solid\""
par StaticAP.visualizer.mediumVisualizer communicationRangeLineWidth 1
par StaticAP.visualizer.mediumVisualizer displayInterferenceRanges false
par StaticAP.visualizer.mediumVisualizer interferenceRangeLineColor "\"gray\""
par StaticAP.visualizer.mediumVisualizer interferenceRangeLineStyle "\"solid\""
par StaticAP.visualizer.mediumVisualizer interferenceRangeLineWidth 1
par StaticAP.visualizer.mediumVisualizer autoPowerAxis true
par StaticAP.visualizer.mediumVisualizer signalMinPower "inf dBmW"
attr unit dBmW
par StaticAP.visualizer.mediumVisualizer signalMaxPower 0dBmW
attr unit dBmW
par StaticAP.visualizer.mediumVisualizer signalMinPowerDensity "inf dBmWpMHz"
attr unit dBmWpMHz
par StaticAP.visualizer.mediumVisualizer signalMaxPowerDensity "-inf dBmWpMHz"
attr unit dBmWpMHz
par StaticAP.visualizer.mediumVisualizer autoTimeAxis true
par StaticAP.visualizer.mediumVisualizer signalMinTime 0s
attr unit s
par StaticAP.visualizer.mediumVisualizer signalMaxTime 0s
attr unit s
par StaticAP.visualizer.mediumVisualizer autoFrequencyAxis true
par StaticAP.visualizer.mediumVisualizer signalMinFrequency "inf Hz"
attr unit Hz
par StaticAP.visualizer.mediumVisualizer signalMaxFrequency "-inf Hz"
attr unit Hz
par StaticAP.visualizer.mediumVisualizer displayMainPowerDensityMap false
par StaticAP.visualizer.mediumVisualizer mainPowerDensityMapPixmapDensity 1
par StaticAP.visualizer.mediumVisualizer mainPowerDensityMapMinX 0
par StaticAP.visualizer.mediumVisualizer mainPowerDensityMapMaxX "nan "
par StaticAP.visualizer.mediumVisualizer mainPowerDensityMapMinY 0
par StaticAP.visualizer.mediumVisualizer mainPowerDensityMapMaxY "nan "
par StaticAP.visualizer.mediumVisualizer mainPowerDensityMapZ 0
par StaticAP.visualizer.mediumVisualizer mainPowerDensityMapFigureXTickCount 3
par StaticAP.visualizer.mediumVisualizer mainPowerDensityMapFigureYTickCount 3
par StaticAP.visualizer.mediumVisualizer displayPowerDensityMaps false
par StaticAP.visualizer.mediumVisualizer powerDensityMapMode "\"auto\""
attr enum total,signal,auto
par StaticAP.visualizer.mediumVisualizer powerDensityMapPixelMode "\"mean\""
attr enum sample,partition,mean
par StaticAP.visualizer.mediumVisualizer powerDensityMapApproximationSize 10
par StaticAP.visualizer.mediumVisualizer powerDensityMapCenterFrequency "nan Hz"
attr mutable ""
attr unit Hz
par StaticAP.visualizer.mediumVisualizer powerDensityMapBandwidth 0Hz
attr mutable ""
attr unit Hz
par StaticAP.visualizer.mediumVisualizer powerDensityMapFigureWidth 200
par StaticAP.visualizer.mediumVisualizer powerDensityMapFigureHeight 120
par StaticAP.visualizer.mediumVisualizer powerDensityMapPixmapWidth 200
par StaticAP.visualizer.mediumVisualizer powerDensityMapPixmapHeight 120
par StaticAP.visualizer.mediumVisualizer powerDensityMapZ 0
par StaticAP.visualizer.mediumVisualizer powerDensityMapFigureXTickCount 3
par StaticAP.visualizer.mediumVisualizer powerDensityMapFigureYTickCount 3
par StaticAP.visualizer.mediumVisualizer displaySpectrums false
par StaticAP.visualizer.mediumVisualizer spectrumMode "\"auto\""
attr enum total,signal,auto
par StaticAP.visualizer.mediumVisualizer spectrumFigureWidth 200
par StaticAP.visualizer.mediumVisualizer spectrumFigureHeight 120
par StaticAP.visualizer.mediumVisualizer spectrumFigureXTickCount 3
par StaticAP.visualizer.mediumVisualizer spectrumFigureYTickCount 5
par StaticAP.visualizer.mediumVisualizer spectrumFigureInterpolationSize 5
par StaticAP.visualizer.mediumVisualizer spectrumPlacementHint "\"bottomCenter\""
par StaticAP.visualizer.mediumVisualizer spectrumPlacementPriority -1
par StaticAP.visualizer.mediumVisualizer displaySpectrograms false
par StaticAP.visualizer.mediumVisualizer spectrogramMode "\"auto\""
attr enum total,signal,auto
par StaticAP.visualizer.mediumVisualizer spectrogramPixelMode "\"mean\""
attr enum sample,partition,mean
par StaticAP.visualizer.mediumVisualizer spectrogramFigureWidth 200
par StaticAP.visualizer.mediumVisualizer spectrogramFigureHeight 120
par StaticAP.visualizer.mediumVisualizer spectrogramPixmapWidth 200
par StaticAP.visualizer.mediumVisualizer spectrogramPixmapHeight 120
par StaticAP.visualizer.mediumVisualizer spectrogramFigureXTickCount 3
par StaticAP.visualizer.mediumVisualizer spectrogramFigureYTickCount 5
par StaticAP.visualizer.mediumVisualizer spectrogramPlacementHint "\"bottomCenter\""
par StaticAP.visualizer.mediumVisualizer spectrogramPlacementPriority -1
par StaticAP.visualizer.mediumVisualizer zIndex 0
par StaticAP.visualizer.mediumVisualizer signalShape "\"ring\""
attr enum ring,sphere
par StaticAP.visualizer.mediumVisualizer signalOpacity 0.5
par StaticAP.visualizer.mediumVisualizer signalRingCount 20
par StaticAP.visualizer.mediumVisualizer signalRingSize 50m
attr unit m
par StaticAP.visualizer.mediumVisualizer signalFadingDistance 50m
attr unit m
par StaticAP.visualizer.mediumVisualizer signalFadingFactor 1.2
par StaticAP.visualizer.mediumVisualizer signalWaveCount 20
par StaticAP.visualizer.mediumVisualizer signalWaveLength 50m
attr unit m
par StaticAP.visualizer.mediumVisualizer signalWaveWidth 10m
attr unit m
par StaticAP.visualizer.mediumVisualizer signalWaveFadingAnimationSpeedFactor 1
par StaticAP.visualizer.mediumVisualizer displayCommunicationHeat false
par StaticAP.visualizer.obstacleLossVisualizer typename "\"inet.visualizer.canvas.physicallayer.TracingObstacleLossCanvasVisualizer\""
par StaticAP.visualizer.obstacleLossVisualizer visualizationTargetModule "\"^.^\""
par StaticAP.visualizer.obstacleLossVisualizer visualizationSubjectModule "\"^.^\""
par StaticAP.visualizer.obstacleLossVisualizer tags "\"\""
par StaticAP.visualizer.obstacleLossVisualizer displayIntersections false
par StaticAP.visualizer.obstacleLossVisualizer intersectionLineColor "\"red\""
par StaticAP.visualizer.obstacleLossVisualizer intersectionLineStyle "\"solid\""
par StaticAP.visualizer.obstacleLossVisualizer intersectionLineWidth 1
par StaticAP.visualizer.obstacleLossVisualizer displayFaceNormalVectors false
par StaticAP.visualizer.obstacleLossVisualizer faceNormalLineColor "\"grey\""
par StaticAP.visualizer.obstacleLossVisualizer faceNormalLineStyle "\"solid\""
par StaticAP.visualizer.obstacleLossVisualizer faceNormalLineWidth 1
par StaticAP.visualizer.obstacleLossVisualizer fadeOutMode "\"realTime\""
attr enum realTime,animationTime,simulationTime
par StaticAP.visualizer.obstacleLossVisualizer fadeOutTime 1s
attr unit s
par StaticAP.visualizer.obstacleLossVisualizer fadeOutAnimationSpeed 0
par StaticAP.visualizer.obstacleLossVisualizer zIndex 0
par StaticAP.visualizer.packetDropVisualizer typename "\"inet.visualizer.canvas.common.PacketDropCanvasVisualizer\""
par StaticAP.visualizer.packetDropVisualizer visualizationTargetModule "\"^.^\""
par StaticAP.visualizer.packetDropVisualizer visualizationSubjectModule "\"^.^\""
par StaticAP.visualizer.packetDropVisualizer tags "\"\""
par StaticAP.visualizer.packetDropVisualizer displayPacketDrops false
par StaticAP.visualizer.packetDropVisualizer nodeFilter "\"*\""
attr mutable ""
par StaticAP.visualizer.packetDropVisualizer interfaceFilter "\"*\""
attr mutable ""
par StaticAP.visualizer.packetDropVisualizer packetFilter "(omnetpp::cValueHolder)holder: \"*\""
attr mutable ""
par StaticAP.visualizer.packetDropVisualizer detailsFilter "\"*\""
attr mutable ""
par StaticAP.visualizer.packetDropVisualizer icon "\"msg/packet_s\""
par StaticAP.visualizer.packetDropVisualizer iconTintAmount 1
par StaticAP.visualizer.packetDropVisualizer iconTintColor "\"dark\""
par StaticAP.visualizer.packetDropVisualizer labelFormat "\"%n\""
attr mutable ""
par StaticAP.visualizer.packetDropVisualizer labelFont "\"<default>\""
par StaticAP.visualizer.packetDropVisualizer labelColor "\"black\""
par StaticAP.visualizer.packetDropVisualizer fadeOutMode "\"realTime\""
attr enum realTime,animationTime,simulationTime
par StaticAP.visualizer.packetDropVisualizer fadeOutTime 1s
attr unit s
par StaticAP.visualizer.packetDropVisualizer fadeOutAnimationSpeed 0
par StaticAP.visualizer.packetDropVisualizer zIndex 10
par StaticAP.visualizer.packetDropVisualizer dx 32
par StaticAP.visualizer.packetDropVisualizer dy 64
par StaticAP.visualizer.packetFlowVisualizer typename "\"inet.visualizer.canvas.flow.PacketFlowCanvasVisualizer\""
par StaticAP.visualizer.packetFlowVisualizer visualizationTargetModule "\"^.^\""
par StaticAP.visualizer.packetFlowVisualizer visualizationSubjectModule "\"^.^\""
par StaticAP.visualizer.packetFlowVisualizer tags "\"\""
par StaticAP.visualizer.packetFlowVisualizer displayRoutes false
par StaticAP.visualizer.packetFlowVisualizer startPathSignal "\"packetFlowStarted\""
par StaticAP.visualizer.packetFlowVisualizer extendPathSignal "\"packetReceivedFromLower\""
par StaticAP.visualizer.packetFlowVisualizer endPathSignal "\"packetFlowEnded\""
par StaticAP.visualizer.packetFlowVisualizer nodeFilter "\"*\""
attr mutable ""
par StaticAP.visualizer.packetFlowVisualizer packetFilter "(omnetpp::cValueHolder)holder: \"*\""
attr mutable ""
par StaticAP.visualizer.packetFlowVisualizer lineColor "\"dark\""
par StaticAP.visualizer.packetFlowVisualizer lineStyle "\"dashed\""
par StaticAP.visualizer.packetFlowVisualizer lineWidth 3
par StaticAP.visualizer.packetFlowVisualizer lineSmooth false
par StaticAP.visualizer.packetFlowVisualizer lineShift 16
par StaticAP.visualizer.packetFlowVisualizer lineShiftMode "\"normal\""
par StaticAP.visualizer.packetFlowVisualizer lineContactSpacing 3
par StaticAP.visualizer.packetFlowVisualizer lineContactMode "\"rectangular\""
attr enum circular,rectangular
par StaticAP.visualizer.packetFlowVisualizer labelFormat "\"%L %p pk (%l)\""
par StaticAP.visualizer.packetFlowVisualizer labelFont "\"<default>, 8px\""
par StaticAP.visualizer.packetFlowVisualizer labelColor "\"\""
par StaticAP.visualizer.packetFlowVisualizer fadeOutMode "\"realTime\""
attr enum realTime,animationTime,simulationTime
par StaticAP.visualizer.packetFlowVisualizer fadeOutTime 0s
attr unit s
par StaticAP.visualizer.packetFlowVisualizer fadeOutAnimationSpeed 0
par StaticAP.visualizer.packetFlowVisualizer zIndex 4
par StaticAP.visualizer.queueVisualizer typename "\"inet.visualizer.canvas.common.QueueCanvasVisualizer\""
par StaticAP.visualizer.queueVisualizer visualizationTargetModule "\"^.^\""
par StaticAP.visualizer.queueVisualizer visualizationSubjectModule "\"^.^\""
par StaticAP.visualizer.queueVisualizer tags "\"\""
par StaticAP.visualizer.queueVisualizer networkNodeVisualizerModule "\"^.networkNodeVisualizer\""
par StaticAP.visualizer.queueVisualizer displayQueues false
par StaticAP.visualizer.queueVisualizer queueFilter "\"**\""
par StaticAP.visualizer.queueVisualizer color "\"blue\""
par StaticAP.visualizer.queueVisualizer width 8
par StaticAP.visualizer.queueVisualizer height 24
par StaticAP.visualizer.queueVisualizer spacing 2
par StaticAP.visualizer.queueVisualizer placementHint "\"right\""
par StaticAP.visualizer.queueVisualizer placementPriority 0
par StaticAP.visualizer.queueVisualizer zIndex 10
par StaticAP.visualizer.gateScheduleVisualizer typename "\"inet.visualizer.canvas.common.GateScheduleCanvasVisualizer\""
par StaticAP.visualizer.gateScheduleVisualizer visualizationTargetModule "\"^.^\""
par StaticAP.visualizer.gateScheduleVisualizer visualizationSubjectModule "\"^.^\""
par StaticAP.visualizer.gateScheduleVisualizer tags "\"\""
par StaticAP.visualizer.gateScheduleVisualizer networkNodeVisualizerModule "\"^.networkNodeVisualizer\""
par StaticAP.visualizer.gateScheduleVisualizer displayGateSchedules false
par StaticAP.visualizer.gateScheduleVisualizer labelFormat "\"%i %D\""
par StaticAP.visualizer.gateScheduleVisualizer gateFilter "\"**\""
par StaticAP.visualizer.gateScheduleVisualizer width 100
par StaticAP.visualizer.gateScheduleVisualizer height 8
par StaticAP.visualizer.gateScheduleVisualizer spacing 2
par StaticAP.visualizer.gateScheduleVisualizer placementHint "\"right\""
par StaticAP.visualizer.gateScheduleVisualizer placementPriority 0
par StaticAP.visualizer.gateScheduleVisualizer displayDuration 0s
attr mutable ""
attr unit s
par StaticAP.visualizer.gateScheduleVisualizer currentTimePosition 50
par StaticAP.visualizer.gateScheduleVisualizer zIndex 10
par StaticAP.visualizer.radioVisualizer typename "\"inet.visualizer.canvas.physicallayer.RadioCanvasVisualizer\""
par StaticAP.visualizer.radioVisualizer visualizationTargetModule "\"^.^\""
par StaticAP.visualizer.radioVisualizer visualizationSubjectModule "\"^.^\""
par StaticAP.visualizer.radioVisualizer tags "\"\""
par StaticAP.visualizer.radioVisualizer networkNodeVisualizerModule "\"^.networkNodeVisualizer\""
par StaticAP.visualizer.radioVisualizer displayRadios false
par StaticAP.visualizer.radioVisualizer displayRadioMode true
par StaticAP.visualizer.radioVisualizer displayReceptionState true
par StaticAP.visualizer.radioVisualizer displayTransmissionState true
par StaticAP.visualizer.radioVisualizer displayAntennaLobes false
par StaticAP.visualizer.radioVisualizer radioFilter "\"**\""
attr mutable ""
par StaticAP.visualizer.radioVisualizer radioModeImages "\"block/process_vs block/timer_vs block/wrx_vs block/wtx_vs block/wrxtx_vs block/cogwheel_vs\""
par StaticAP.visualizer.radioVisualizer receptionStateImages "\"- - misc/receiving misc/receiving\""
par StaticAP.visualizer.radioVisualizer transmissionStateImages "\"- - misc/transmitting\""
par StaticAP.visualizer.radioVisualizer width 16
par StaticAP.visualizer.radioVisualizer height 16
par StaticAP.visualizer.radioVisualizer placementHint "\"bottomRight\""
par StaticAP.visualizer.radioVisualizer placementPriority 0
par StaticAP.visualizer.radioVisualizer antennaLobeNormalize false
par StaticAP.visualizer.radioVisualizer antennaLobeRelativeLabels false
par StaticAP.visualizer.radioVisualizer antennaLobePlaneGlobal true
par StaticAP.visualizer.radioVisualizer antennaLobePlane "\"view\""
attr enum view,xy,xz,yz
par StaticAP.visualizer.radioVisualizer antennaLobeMode "\"logarithmic\""
attr enum logarithmic,linear
par StaticAP.visualizer.radioVisualizer antennaLobeLogarithmicBase 10
par StaticAP.visualizer.radioVisualizer antennaLobeLogarithmicScale 100
par StaticAP.visualizer.radioVisualizer antennaLobeRadius 100
par StaticAP.visualizer.radioVisualizer antennaLobeStep 10deg
attr unit deg
par StaticAP.visualizer.radioVisualizer antennaLobeOpacity 0.25
par StaticAP.visualizer.radioVisualizer antennaLobeLineSmooth true
par StaticAP.visualizer.radioVisualizer antennaLobeLineColor "\"black\""
par StaticAP.visualizer.radioVisualizer antennaLobeLineStyle "\"solid\""
par StaticAP.visualizer.radioVisualizer antennaLobeLineWidth 1
par StaticAP.visualizer.radioVisualizer antennaLobeFillColor "\"white\""
par StaticAP.visualizer.radioVisualizer zIndex 10
par StaticAP.visualizer.physicalLinkVisualizer typename "\"inet.visualizer.canvas.physicallayer.PhysicalLinkCanvasVisualizer\""
par StaticAP.visualizer.physicalLinkVisualizer visualizationTargetModule "\"^.^\""
par StaticAP.visualizer.physicalLinkVisualizer visualizationSubjectModule "\"^.^\""
par StaticAP.visualizer.physicalLinkVisualizer tags "\"\""
par StaticAP.visualizer.physicalLinkVisualizer displayLinks false
par StaticAP.visualizer.physicalLinkVisualizer activityLevel "\"service\""
attr enum service,peer,protocol
par StaticAP.visualizer.physicalLinkVisualizer nodeFilter "\"*\""
attr mutable ""
par StaticAP.visualizer.physicalLinkVisualizer interfaceFilter "\"*\""
attr mutable ""
par StaticAP.visualizer.physicalLinkVisualizer packetFilter "(omnetpp::cValueHolder)holder: \"*\""
attr mutable ""
par StaticAP.visualizer.physicalLinkVisualizer lineColor "\"olive\""
par StaticAP.visualizer.physicalLinkVisualizer lineStyle "\"dotted\""
par StaticAP.visualizer.physicalLinkVisualizer lineWidth 3
par StaticAP.visualizer.physicalLinkVisualizer lineShift 16
par StaticAP.visualizer.physicalLinkVisualizer lineShiftMode "\"normal\""
par StaticAP.visualizer.physicalLinkVisualizer lineContactSpacing 3
par StaticAP.visualizer.physicalLinkVisualizer lineContactMode "\"rectangular\""
attr enum circular,rectangular
par StaticAP.visualizer.physicalLinkVisualizer labelFormat "\"%n\""
par StaticAP.visualizer.physicalLinkVisualizer labelFont "\"<default>, 8px\""
par StaticAP.visualizer.physicalLinkVisualizer labelColor "\"olive\""
par StaticAP.visualizer.physicalLinkVisualizer fadeOutMode "\"realTime\""
attr enum realTime,animationTime,simulationTime
par StaticAP.visualizer.physicalLinkVisualizer fadeOutTime 1s
attr unit s
par StaticAP.visualizer.physicalLinkVisualizer fadeOutAnimationSpeed 0
par StaticAP.visualizer.physicalLinkVisualizer holdAnimationTime 0s
attr unit s
par StaticAP.visualizer.physicalLinkVisualizer zIndex 1
par StaticAP.visualizer.interfaceTableVisualizer typename "\"inet.visualizer.canvas.linklayer.InterfaceTableCanvasVisualizer\""
par StaticAP.visualizer.interfaceTableVisualizer visualizationTargetModule "\"^.^\""
par StaticAP.visualizer.interfaceTableVisualizer visualizationSubjectModule "\"^.^\""
par StaticAP.visualizer.interfaceTableVisualizer tags "\"\""
par StaticAP.visualizer.interfaceTableVisualizer networkNodeVisualizerModule "\"^.networkNodeVisualizer\""
par StaticAP.visualizer.interfaceTableVisualizer displayInterfaceTables false
par StaticAP.visualizer.interfaceTableVisualizer displayWiredInterfacesAtConnections true
par StaticAP.visualizer.interfaceTableVisualizer displayBackground false
par StaticAP.visualizer.interfaceTableVisualizer nodeFilter "\"*\""
attr mutable ""
par StaticAP.visualizer.interfaceTableVisualizer interfaceFilter "\"not(lo*)\""
attr mutable ""
par StaticAP.visualizer.interfaceTableVisualizer format "\"%N %\\\\%a%/%l\""
attr mutable ""
par StaticAP.visualizer.interfaceTableVisualizer placementHint "\"top\""
par StaticAP.visualizer.interfaceTableVisualizer placementPriority 0
par StaticAP.visualizer.interfaceTableVisualizer font "\"<default>\""
par StaticAP.visualizer.interfaceTableVisualizer textColor "\"#005030\""
par StaticAP.visualizer.interfaceTableVisualizer backgroundColor "\"white\""
par StaticAP.visualizer.interfaceTableVisualizer opacity 1
par StaticAP.visualizer.interfaceTableVisualizer zIndex 10
par StaticAP.visualizer.dataLinkVisualizer typename "\"inet.visualizer.canvas.linklayer.DataLinkCanvasVisualizer\""
par StaticAP.visualizer.dataLinkVisualizer visualizationTargetModule "\"^.^\""
par StaticAP.visualizer.dataLinkVisualizer visualizationSubjectModule "\"^.^\""
par StaticAP.visualizer.dataLinkVisualizer tags "\"\""
par StaticAP.visualizer.dataLinkVisualizer displayLinks false
par StaticAP.visualizer.dataLinkVisualizer activityLevel "\"service\""
attr enum service,peer,protocol
par StaticAP.visualizer.dataLinkVisualizer nodeFilter "\"*\""
attr mutable ""
par StaticAP.visualizer.dataLinkVisualizer interfaceFilter "\"*\""
attr mutable ""
par StaticAP.visualizer.dataLinkVisualizer packetFilter "(omnetpp::cValueHolder)holder: \"*\""
attr mutable ""
par StaticAP.visualizer.dataLinkVisualizer lineColor "\"darkcyan\""
par StaticAP.visualizer.dataLinkVisualizer lineStyle "\"solid\""
par StaticAP.visualizer.dataLinkVisualizer lineWidth 3
par StaticAP.visualizer.dataLinkVisualizer lineShift 16
par StaticAP.visualizer.dataLinkVisualizer lineShiftMode "\"normal\""
par StaticAP.visualizer.dataLinkVisualizer lineContactSpacing 3
par StaticAP.visualizer.dataLinkVisualizer lineContactMode "\"rectangular\""
attr enum circular,rectangular
par StaticAP.visualizer.dataLinkVisualizer labelFormat "\"%n\""
par StaticAP.visualizer.dataLinkVisualizer labelFont "\"<default>, 8px\""
par StaticAP.visualizer.dataLinkVisualizer labelColor "\"darkcyan\""
par StaticAP.visualizer.dataLinkVisualizer fadeOutMode "\"realTime\""
attr enum realTime,animationTime,simulationTime
par StaticAP.visualizer.dataLinkVisualizer fadeOutTime 1s
attr unit s
par StaticAP.visualizer.dataLinkVisualizer fadeOutAnimationSpeed 0
par StaticAP.visualizer.dataLinkVisualizer holdAnimationTime 0s
attr unit s
par StaticAP.visualizer.dataLinkVisualizer zIndex 2
par StaticAP.visualizer.linkBreakVisualizer typename "\"inet.visualizer.canvas.linklayer.LinkBreakCanvasVisualizer\""
par StaticAP.visualizer.linkBreakVisualizer visualizationTargetModule "\"^.^\""
par StaticAP.visualizer.linkBreakVisualizer visualizationSubjectModule "\"^.^\""
par StaticAP.visualizer.linkBreakVisualizer tags "\"\""
par StaticAP.visualizer.linkBreakVisualizer displayLinkBreaks false
par StaticAP.visualizer.linkBreakVisualizer nodeFilter "\"*\""
attr mutable ""
par StaticAP.visualizer.linkBreakVisualizer interfaceFilter "\"*\""
attr mutable ""
par StaticAP.visualizer.linkBreakVisualizer packetFilter "(omnetpp::cValueHolder)holder: \"*\""
attr mutable ""
par StaticAP.visualizer.linkBreakVisualizer icon "\"status/stop\""
par StaticAP.visualizer.linkBreakVisualizer iconTintAmount 0
par StaticAP.visualizer.linkBreakVisualizer iconTintColor "\"\""
par StaticAP.visualizer.linkBreakVisualizer fadeOutMode "\"realTime\""
attr enum realTime,animationTime,simulationTime
par StaticAP.visualizer.linkBreakVisualizer fadeOutTime 1s
attr unit s
par StaticAP.visualizer.linkBreakVisualizer fadeOutAnimationSpeed 0
par StaticAP.visualizer.linkBreakVisualizer zIndex 2
par StaticAP.visualizer.ieee80211Visualizer typename "\"inet.visualizer.canvas.linklayer.Ieee80211CanvasVisualizer\""
par StaticAP.visualizer.ieee80211Visualizer visualizationTargetModule "\"^.^\""
par StaticAP.visualizer.ieee80211Visualizer visualizationSubjectModule "\"^.^\""
par StaticAP.visualizer.ieee80211Visualizer tags "\"\""
par StaticAP.visualizer.ieee80211Visualizer networkNodeVisualizerModule "\"^.networkNodeVisualizer\""
par StaticAP.visualizer.ieee80211Visualizer displayAssociations false
par StaticAP.visualizer.ieee80211Visualizer nodeFilter "\"*\""
attr mutable ""
par StaticAP.visualizer.ieee80211Visualizer interfaceFilter "\"*\""
attr mutable ""
par StaticAP.visualizer.ieee80211Visualizer minPower -85dBm
attr unit dBm
par StaticAP.visualizer.ieee80211Visualizer maxPower -50dBm
attr unit dBm
par StaticAP.visualizer.ieee80211Visualizer icons "\"misc/signal_power_0 misc/signal_power_1 misc/signal_power_2 misc/signal_power_3\""
par StaticAP.visualizer.ieee80211Visualizer iconColor "\"dark\""
par StaticAP.visualizer.ieee80211Visualizer labelFont "\"<default>\""
par StaticAP.visualizer.ieee80211Visualizer labelColor "\"black\""
par StaticAP.visualizer.ieee80211Visualizer placementHint "\"top\""
par StaticAP.visualizer.ieee80211Visualizer placementPriority 0
par StaticAP.visualizer.ieee80211Visualizer zIndex 2
par StaticAP.visualizer.networkRouteVisualizer typename "\"inet.visualizer.canvas.networklayer.NetworkRouteCanvasVisualizer\""
par StaticAP.visualizer.networkRouteVisualizer visualizationTargetModule "\"^.^\""
par StaticAP.visualizer.networkRouteVisualizer visualizationSubjectModule "\"^.^\""
par StaticAP.visualizer.networkRouteVisualizer tags "\"\""
par StaticAP.visualizer.networkRouteVisualizer displayRoutes false
par StaticAP.visualizer.networkRouteVisualizer startPathSignal "\"packetReceivedFromUpper\""
par StaticAP.visualizer.networkRouteVisualizer extendPathSignal "\"packetReceivedFromLower\""
par StaticAP.visualizer.networkRouteVisualizer endPathSignal "\"packetSentToUpper\""
par StaticAP.visualizer.networkRouteVisualizer nodeFilter "\"*\""
attr mutable ""
par StaticAP.visualizer.networkRouteVisualizer packetFilter "(omnetpp::cValueHolder)holder: \"*\""
attr mutable ""
par StaticAP.visualizer.networkRouteVisualizer lineColor "\"dark\""
par StaticAP.visualizer.networkRouteVisualizer lineStyle "\"solid\""
par StaticAP.visualizer.networkRouteVisualizer lineWidth 3
par StaticAP.visualizer.networkRouteVisualizer lineSmooth false
par StaticAP.visualizer.networkRouteVisualizer lineShift 16
par StaticAP.visualizer.networkRouteVisualizer lineShiftMode "\"normal\""
par StaticAP.visualizer.networkRouteVisualizer lineContactSpacing 3
par StaticAP.visualizer.networkRouteVisualizer lineContactMode "\"rectangular\""
attr enum circular,rectangular
par StaticAP.visualizer.networkRouteVisualizer labelFormat "\"%n\""
par StaticAP.visualizer.networkRouteVisualizer labelFont "\"<default>, 8px\""
par StaticAP.visualizer.networkRouteVisualizer labelColor "\"\""
par StaticAP.visualizer.networkRouteVisualizer fadeOutMode "\"realTime\""
attr enum realTime,animationTime,simulationTime
par StaticAP.visualizer.networkRouteVisualizer fadeOutTime 1s
attr unit s
par StaticAP.visualizer.networkRouteVisualizer fadeOutAnimationSpeed 0
par StaticAP.visualizer.networkRouteVisualizer zIndex 3
par StaticAP.visualizer.routingTableVisualizer typename "\"inet.visualizer.canvas.networklayer.RoutingTableCanvasVisualizer\""
par StaticAP.visualizer.routingTableVisualizer visualizationTargetModule "\"^.^\""
par StaticAP.visualizer.routingTableVisualizer visualizationSubjectModule "\"^.^\""
par StaticAP.visualizer.routingTableVisualizer tags "\"\""
par StaticAP.visualizer.routingTableVisualizer displayRoutingTables false
par StaticAP.visualizer.routingTableVisualizer displayRoutesIndividually true
par StaticAP.visualizer.routingTableVisualizer displayLabels true
par StaticAP.visualizer.routingTableVisualizer destinationFilter "\"*\""
attr mutable ""
par StaticAP.visualizer.routingTableVisualizer nodeFilter "\"*\""
attr mutable ""
par StaticAP.visualizer.routingTableVisualizer lineColor "\"black\""
par StaticAP.visualizer.routingTableVisualizer lineStyle "\"solid\""
par StaticAP.visualizer.routingTableVisualizer lineWidth 2
par StaticAP.visualizer.routingTableVisualizer lineShift 16
par StaticAP.visualizer.routingTableVisualizer lineShiftMode "\"normal\""
par StaticAP.visualizer.routingTableVisualizer lineContactSpacing 3
par StaticAP.visualizer.routingTableVisualizer lineContactMode "\"rectangular\""
attr enum circular,rectangular
par StaticAP.visualizer.routingTableVisualizer labelFormat "\"%d/%m -> %g (%n)\""
attr mutable ""
par StaticAP.visualizer.routingTableVisualizer labelFont "\"<default>, 8px\""
par StaticAP.visualizer.routingTableVisualizer labelColor "\"black\""
par StaticAP.visualizer.routingTableVisualizer zIndex 0
par StaticAP.visualizer.transportRouteVisualizer typename "\"inet.visualizer.canvas.transportlayer.TransportRouteCanvasVisualizer\""
par StaticAP.visualizer.transportRouteVisualizer visualizationTargetModule "\"^.^\""
par StaticAP.visualizer.transportRouteVisualizer visualizationSubjectModule "\"^.^\""
par StaticAP.visualizer.transportRouteVisualizer tags "\"\""
par StaticAP.visualizer.transportRouteVisualizer displayRoutes false
par StaticAP.visualizer.transportRouteVisualizer startPathSignal "\"packetReceivedFromUpper\""
par StaticAP.visualizer.transportRouteVisualizer extendPathSignal "\"packetReceivedFromLower\""
par StaticAP.visualizer.transportRouteVisualizer endPathSignal "\"packetSentToUpper\""
par StaticAP.visualizer.transportRouteVisualizer nodeFilter "\"*\""
attr mutable ""
par StaticAP.visualizer.transportRouteVisualizer packetFilter "(omnetpp::cValueHolder)holder: \"*\""
attr mutable ""
par StaticAP.visualizer.transportRouteVisualizer lineColor "\"dark\""
par StaticAP.visualizer.transportRouteVisualizer lineStyle "\"solid\""
par StaticAP.visualizer.transportRouteVisualizer lineWidth 3
par StaticAP.visualizer.transportRouteVisualizer lineSmooth false
par StaticAP.visualizer.transportRouteVisualizer lineShift 16
par StaticAP.visualizer.transportRouteVisualizer lineShiftMode "\"normal\""
par StaticAP.visualizer.transportRouteVisualizer lineContactSpacing 3
par StaticAP.visualizer.transportRouteVisualizer lineContactMode "\"rectangular\""
attr enum circular,rectangular
par StaticAP.visualizer.transportRouteVisualizer labelFormat "\"%n\""
par StaticAP.visualizer.transportRouteVisualizer labelFont "\"<default>, 8px\""
par StaticAP.visualizer.transportRouteVisualizer labelColor "\"\""
par StaticAP.visualizer.transportRouteVisualizer fadeOutMode "\"realTime\""
attr enum realTime,animationTime,simulationTime
par StaticAP.visualizer.transportRouteVisualizer fadeOutTime 1s
attr unit s
par StaticAP.visualizer.transportRouteVisualizer fadeOutAnimationSpeed 0
par StaticAP.visualizer.transportRouteVisualizer zIndex 4
par StaticAP.visualizer.transportConnectionVisualizer typename "\"inet.visualizer.canvas.transportlayer.TransportConnectionCanvasVisualizer\""
par StaticAP.visualizer.transportConnectionVisualizer visualizationTargetModule "\"^.^\""
par StaticAP.visualizer.transportConnectionVisualizer visualizationSubjectModule "\"^.^\""
par StaticAP.visualizer.transportConnectionVisualizer tags "\"\""
par StaticAP.visualizer.transportConnectionVisualizer networkNodeVisualizerModule "\"^.networkNodeVisualizer\""
par StaticAP.visualizer.transportConnectionVisualizer displayTransportConnections false
par StaticAP.visualizer.transportConnectionVisualizer sourceNodeFilter "\"*\""
attr mutable ""
par StaticAP.visualizer.transportConnectionVisualizer sourcePortFilter "\"*\""
attr mutable ""
par StaticAP.visualizer.transportConnectionVisualizer destinationNodeFilter "\"*\""
attr mutable ""
par StaticAP.visualizer.transportConnectionVisualizer destinationPortFilter "\"*\""
attr mutable ""
par StaticAP.visualizer.transportConnectionVisualizer icon "\"misc/marker_s\""
par StaticAP.visualizer.transportConnectionVisualizer iconColor "\"dark\""
par StaticAP.visualizer.transportConnectionVisualizer labelFont "\"<default>\""
par StaticAP.visualizer.transportConnectionVisualizer labelColor "\"black\""
par StaticAP.visualizer.transportConnectionVisualizer placementHint "\"top\""
par StaticAP.visualizer.transportConnectionVisualizer placementPriority 0
par StaticAP.visualizer.transportConnectionVisualizer zIndex 4
par StaticAP.visualizer.failureProtectionConfigurationVisualizer typename "\"inet.visualizer.canvas.configurator.FailureProtectionConfigurationCanvasVisualizer\""
par StaticAP.visualizer.failureProtectionConfigurationVisualizer visualizationTargetModule "\"^.^\""
par StaticAP.visualizer.failureProtectionConfigurationVisualizer visualizationSubjectModule "\"^.^\""
par StaticAP.visualizer.failureProtectionConfigurationVisualizer tags "\"\""
par StaticAP.visualizer.failureProtectionConfigurationVisualizer displayTrees false
par StaticAP.visualizer.failureProtectionConfigurationVisualizer lineColor "\"dark\""
par StaticAP.visualizer.failureProtectionConfigurationVisualizer lineStyle "\"solid\""
par StaticAP.visualizer.failureProtectionConfigurationVisualizer lineWidth 3
par StaticAP.visualizer.failureProtectionConfigurationVisualizer lineSmooth false
par StaticAP.visualizer.failureProtectionConfigurationVisualizer lineShift 16
par StaticAP.visualizer.failureProtectionConfigurationVisualizer lineShiftMode "\"normal\""
par StaticAP.visualizer.failureProtectionConfigurationVisualizer lineContactSpacing 3
par StaticAP.visualizer.failureProtectionConfigurationVisualizer lineContactMode "\"rectangular\""
attr enum circular,rectangular
par StaticAP.visualizer.failureProtectionConfigurationVisualizer failureProtectionConfiguratorModule "\"failureProtectionConfigurator\""
par StaticAP.visualizer.failureProtectionConfigurationVisualizer streamFilter "\"*\""
par StaticAP.visualizer.failureProtectionConfigurationVisualizer zIndex 3
par StaticAP.visualizer.streamRedundancyConfigurationVisualizer typename "\"inet.visualizer.canvas.configurator.StreamRedundancyConfigurationCanvasVisualizer\""
par StaticAP.visualizer.streamRedundancyConfigurationVisualizer visualizationTargetModule "\"^.^\""
par StaticAP.visualizer.streamRedundancyConfigurationVisualizer visualizationSubjectModule "\"^.^\""
par StaticAP.visualizer.streamRedundancyConfigurationVisualizer tags "\"\""
par StaticAP.visualizer.streamRedundancyConfigurationVisualizer displayTrees false
par StaticAP.visualizer.streamRedundancyConfigurationVisualizer lineColor "\"dark\""
par StaticAP.visualizer.streamRedundancyConfigurationVisualizer lineStyle "\"solid\""
par StaticAP.visualizer.streamRedundancyConfigurationVisualizer lineWidth 3
par StaticAP.visualizer.streamRedundancyConfigurationVisualizer lineSmooth false
par StaticAP.visualizer.streamRedundancyConfigurationVisualizer lineShift 16
par StaticAP.visualizer.streamRedundancyConfigurationVisualizer lineShiftMode "\"normal\""
par StaticAP.visualizer.streamRedundancyConfigurationVisualizer lineContactSpacing 3
par StaticAP.visualizer.streamRedundancyConfigurationVisualizer lineContactMode "\"rectangular\""
attr enum circular,rectangular
par StaticAP.visualizer.streamRedundancyConfigurationVisualizer streamRedundancyConfiguratorModule "\"streamRedundancyConfigurator\""
par StaticAP.visualizer.streamRedundancyConfigurationVisualizer streamFilter "\"*\""
par StaticAP.visualizer.streamRedundancyConfigurationVisualizer zIndex 3
par StaticAP.visualizer typename "\"inet.visualizer.canvas.integrated.IntegratedCanvasVisualizer\""
par StaticAP.radioMedium.propagation typename "\"inet.physicallayer.wireless.common.propagation.ConstantSpeedPropagation\""
par StaticAP.radioMedium.propagation propagationSpeed 2.99792e+08mps
attr unit mps
par StaticAP.radioMedium.propagation ignoreMovementDuringTransmission true
par StaticAP.radioMedium.propagation ignoreMovementDuringPropagation true
par StaticAP.radioMedium.propagation ignoreMovementDuringReception true
scalar StaticAP.radioMedium.propagation "Arrival computation count" 7081
par StaticAP.radioMedium.analogModel typename "\"inet.physicallayer.wireless.common.analogmodel.packetlevel.ScalarAnalogModel\""
par StaticAP.radioMedium.analogModel ignorePartialInterference false
par StaticAP.radioMedium.backgroundNoise typename "\"inet.physicallayer.wireless.common.backgroundnoise.IsotropicScalarBackgroundNoise\""
par StaticAP.radioMedium.backgroundNoise power -100dBm
attr unit dBm
par StaticAP.radioMedium.backgroundNoise bandwidth "nan Hz"
attr unit Hz
par StaticAP.radioMedium.pathLoss typename "\"inet.physicallayer.wireless.common.pathloss.FreeSpacePathLoss\""
par StaticAP.radioMedium.pathLoss alpha 2
par StaticAP.radioMedium.pathLoss systemLoss 0dB
attr unit dB
par StaticAP.radioMedium.mediumLimitCache typename "\"inet.physicallayer.wireless.common.medium.MediumLimitCache\""
par StaticAP.radioMedium.mediumLimitCache centerFrequency 2.4e+09Hz
attr unit Hz
par StaticAP.radioMedium.mediumLimitCache maxSpeed "nan mps"
attr unit mps
par StaticAP.radioMedium.mediumLimitCache maxTransmissionPower "nan W"
attr unit W
par StaticAP.radioMedium.mediumLimitCache minInterferencePower -110dBm
attr unit dBm
par StaticAP.radioMedium.mediumLimitCache minReceptionPower -85dBm
attr unit dBm
par StaticAP.radioMedium.mediumLimitCache maxAntennaGain 0dB
attr unit dB
par StaticAP.radioMedium.mediumLimitCache minInterferenceTime 1e-12s
attr unit s
par StaticAP.radioMedium.mediumLimitCache maxTransmissionDuration 0.01s
attr unit s
par StaticAP.radioMedium.mediumLimitCache maxCommunicationRange "nan m"
attr unit m
par StaticAP.radioMedium.mediumLimitCache maxInterferenceRange "nan m"
attr unit m
par StaticAP.radioMedium.communicationCache typename "\"inet.physicallayer.wireless.common.communicationcache.VectorCommunicationCache\""
par StaticAP.radioMedium typename "\"inet.physicallayer.wireless.ieee80211.packetlevel.Ieee80211ScalarRadioMedium\""
par StaticAP.radioMedium physicalEnvironmentModule "\"physicalEnvironment\""
par StaticAP.radioMedium signalAnalogRepresentation "\"scalar\""
attr enum unitDisk,scalar,dimensional
par StaticAP.radioMedium rangeFilter "\"\""
par StaticAP.radioMedium radioModeFilter false
par StaticAP.radioMedium listeningFilter false
par StaticAP.radioMedium macAddressFilter false
par StaticAP.radioMedium recordTransmissionLog false
par StaticAP.radioMedium recordReceptionLog false
scalar StaticAP.radioMedium "transmission count" 7081
scalar StaticAP.radioMedium "signal send count" 7081
scalar StaticAP.radioMedium "reception computation count" 7081
scalar StaticAP.radioMedium "interference computation count" 28328
scalar StaticAP.radioMedium "reception decision computation count" 7081
scalar StaticAP.radioMedium "listening decision computation count" 14166
scalar StaticAP.radioMedium "reception cache hit" 85.714285714286
attr unit %
scalar StaticAP.radioMedium "interference cache hit" 66.666666666667
attr unit %
scalar StaticAP.radioMedium "noise cache hit" 0
attr unit %
scalar StaticAP.radioMedium "snir cache hit" 50
attr unit %
scalar StaticAP.radioMedium "reception decision cache hit" 50
attr unit %
scalar StaticAP.radioMedium "reception result cache hit" 0
attr unit %
par StaticAP.routingRecorder typename "\"inet.networklayer.ipv4.RoutingTableRecorder\""
par StaticAP.routingRecorder enabled true
par StaticAP.configurator typename "\"inet.networklayer.configurator.ipv4.Ipv4NetworkConfigurator\""
par StaticAP.configurator minLinkWeight 0.001
par StaticAP.configurator configureIsolatedNetworksSeparatly false
par StaticAP.configurator config "<config>...</config> at content:1"
par StaticAP.configurator assignAddresses true
par StaticAP.configurator assignUniqueAddresses true
par StaticAP.configurator assignDisjunctSubnetAddresses true
par StaticAP.configurator addStaticRoutes true
par StaticAP.configurator addDefaultRoutes true
par StaticAP.configurator addSubnetRoutes true
par StaticAP.configurator addDirectRoutes true
par StaticAP.configurator optimizeRoutes true
par StaticAP.configurator dumpTopology false
par StaticAP.configurator dumpLinks false
par StaticAP.configurator dumpAddresses false
par StaticAP.configurator dumpRoutes false
par StaticAP.configurator dumpConfig "\"\""
par StaticAP.server.ethg$i[0].channel typename "\"ned.IdealChannel\""
par StaticAP.server.eth[0].phys$o.channel typename "\"ned.IdealChannel\""
par StaticAP.server.interfaceTable typename "\"inet.networklayer.common.InterfaceTable\""
par StaticAP.server.interfaceTable displayAddresses false
par StaticAP.server.cb typename "\"inet.common.MessageDispatcher\""
par StaticAP.server.cb displayStringTextFormat "\"processed %p pk (%l)\""
par StaticAP.server.cb forwardServiceRegistration true
par StaticAP.server.cb forwardProtocolRegistration true
par StaticAP.server.bl typename "\"inet.common.MessageDispatcher\""
par StaticAP.server.bl displayStringTextFormat "\"processed %p pk (%l)\""
par StaticAP.server.bl forwardServiceRegistration true
par StaticAP.server.bl forwardProtocolRegistration true
par StaticAP.server.ethernet typename "\"inet.linklayer.ethernet.basic.EthernetEncapsulation\""
par StaticAP.server.ethernet registerProtocol true
par StaticAP.server.ethernet interfaceTableModule "\"StaticAP.server.interfaceTable\""
par StaticAP.server.ethernet fcsMode "\"declared\""
attr enum declared,computed
par StaticAP.server.ethernet stopOperationExtraTime -1s
attr unit s
par StaticAP.server.ethernet stopOperationTimeout 2s
attr unit s
scalar StaticAP.server.ethernet decapPk:count 2604
attr interpolationmode none
attr recordingmode count
attr source decapPk
attr title "packets decapsulated, count"
scalar StaticAP.server.ethernet decapPk:sum(packetBytes) 2208592
attr interpolationmode none
attr recordingmode sum(packetBytes)
attr source decapPk
attr title "packets decapsulated, sum(packetBytes)"
scalar StaticAP.server.ethernet encapPk:count 601
attr interpolationmode none
attr recordingmode count
attr source encapPk
attr title "packets encapsulated, count"
scalar StaticAP.server.ethernet encapPk:sum(packetBytes) 209148
attr interpolationmode none
attr recordingmode sum(packetBytes)
attr source encapPk
attr title "packets encapsulated, sum(packetBytes)"
scalar StaticAP.server.ethernet pauseSent:count 0
attr recordingmode count
attr title "pause sent, count"
scalar StaticAP.server.ethernet pauseSent:sum 0
attr recordingmode sum
attr title "pause sent, sum"
par StaticAP.server.li typename "\"inet.common.MessageDispatcher\""
par StaticAP.server.li displayStringTextFormat "\"processed %p pk (%l)\""
par StaticAP.server.li forwardServiceRegistration true
par StaticAP.server.li forwardProtocolRegistration true
par StaticAP.server.lo[0].upperLayerIn.channel typename "\"ned.IdealChannel\""
par StaticAP.server.lo[0].lo.upperLayerOut.channel typename "\"ned.IdealChannel\""
par StaticAP.server.lo[0].lo typename "\"inet.linklayer.loopback.Loopback\""
par StaticAP.server.lo[0].lo interfaceTableModule "\"StaticAP.server.interfaceTable\""
par StaticAP.server.lo[0].lo mtu 4470B
attr unit B
scalar StaticAP.server.lo[0].lo rcvdPkFromHl:count 0
attr interpolationmode none
attr recordingmode count
attr source packetReceivedFromUpper
attr title "packets received from higher layer, count"
scalar StaticAP.server.lo[0].lo rcvdPkFromHl:sum(packetBytes) 0
attr interpolationmode none
attr recordingmode sum(packetBytes)
attr source packetReceivedFromUpper
attr title "packets received from higher layer, sum(packetBytes)"
scalar StaticAP.server.lo[0].lo passedUpPk:count 0
attr interpolationmode none
attr recordingmode count
attr source packetSentToUpper
attr title "packets passed to higher layer, count"
scalar StaticAP.server.lo[0].lo passedUpPk:sum(packetBytes) 0
attr interpolationmode none
attr recordingmode sum(packetBytes)
attr source packetSentToUpper
attr title "packets passed to higher layer, sum(packetBytes)"
par StaticAP.server.lo[0] typename "\"inet.linklayer.loopback.LoopbackInterface\""
par StaticAP.server.lo[0] displayStringTextFormat "\"%a (%i)\\n%m\""
par StaticAP.server.lo[0] recordPcap false
par StaticAP.server.lo[0] numPcapRecorders 0
par StaticAP.server.lo[0] interfaceTableModule "\"StaticAP.server.interfaceTable\""
scalar StaticAP.server.lo[0] packetDropInterfaceDown:count 0
attr interpolationmode none
attr recordingmode count
attr source packetDropReasonIsInterfaceDown(packetDropped)
attr title "packet drops: interface down, count"
scalar StaticAP.server.lo[0] packetDropInterfaceDown:sum(packetBytes) 0
attr interpolationmode none
attr recordingmode sum(packetBytes)
attr source packetDropReasonIsInterfaceDown(packetDropped)
attr title "packet drops: interface down, sum(packetBytes)"
scalar StaticAP.server.lo[0] packetDropNoCarrier:count 0
attr interpolationmode none
attr recordingmode count
attr source packetDropReasonIsNoCarrier(packetDropped)
attr title "packet drops: no carrier, count"
scalar StaticAP.server.lo[0] packetDropNoCarrier:sum(packetBytes) 0
attr interpolationmode none
attr recordingmode sum(packetBytes)
attr source packetDropReasonIsNoCarrier(packetDropped)
attr title "packet drops: no carrier, sum(packetBytes)"
par StaticAP.server.eth[0].mac.phys$o.channel typename "\"ned.IdealChannel\""
par StaticAP.server.eth[0].phys$i.channel typename "\"ned.IdealChannel\""
par StaticAP.server.eth[0].upperLayerIn.channel typename "\"ned.IdealChannel\""
par StaticAP.server.eth[0].mac.upperLayerOut.channel typename "\"ned.IdealChannel\""
par StaticAP.server.eth[0].queue typename "\"inet.linklayer.ethernet.common.EthernetQueue\""
par StaticAP.server.eth[0].queue displayStringTextFormat "\"contains %p pk (%l) pushed %u\\npulled %o removed %r dropped %d\""
par StaticAP.server.eth[0].queue packetCapacity 1000
par StaticAP.server.eth[0].queue dataCapacity -1b
attr unit b
par StaticAP.server.eth[0].queue dropperClass "\"inet::queueing::PacketAtCollectionEndDropper\""
par StaticAP.server.eth[0].queue comparatorClass "\"inet::EthernetFrameTypeComparator\""
par StaticAP.server.eth[0].queue bufferModule "\"\""
scalar StaticAP.server.eth[0].queue queueLength:last 0
attr autoWarmupFilter false
attr interpolationmode sample-hold
attr recordingmode last
attr source "warmup(atomic(constant0(packetPushEnded) + count(packetPushStarted) - count(packetPulled) - count(packetRemoved) - count(packetDropped)))"
attr title "queue length, last"
attr unit pk
scalar StaticAP.server.eth[0].queue queueLength:max 0
attr autoWarmupFilter false
attr interpolationmode sample-hold
attr recordingmode max
attr source "warmup(atomic(constant0(packetPushEnded) + count(packetPushStarted) - count(packetPulled) - count(packetRemoved) - count(packetDropped)))"
attr title "queue length, max"
attr unit pk
scalar StaticAP.server.eth[0].queue queueLength:timeavg 0
attr autoWarmupFilter false
attr interpolationmode sample-hold
attr recordingmode timeavg
attr source "warmup(atomic(constant0(packetPushEnded) + count(packetPushStarted) - count(packetPulled) - count(packetRemoved) - count(packetDropped)))"
attr title "queue length, timeavg"
attr unit pk
scalar StaticAP.server.eth[0].queue queueBitLength:last 0
attr autoWarmupFilter false
attr interpolationmode sample-hold
attr recordingmode last
attr source "warmup(atomic(constant0(packetPushEnded) + sum(packetLength(packetPushStarted)) - sum(packetLength(packetPulled)) - sum(packetLength(packetRemoved)) - sum(packetLength(packetDropped))))"
attr title "queue bit length, last"
attr unit b
scalar StaticAP.server.eth[0].queue queueBitLength:max 0
attr autoWarmupFilter false
attr interpolationmode sample-hold
attr recordingmode max
attr source "warmup(atomic(constant0(packetPushEnded) + sum(packetLength(packetPushStarted)) - sum(packetLength(packetPulled)) - sum(packetLength(packetRemoved)) - sum(packetLength(packetDropped))))"
attr title "queue bit length, max"
attr unit b
scalar StaticAP.server.eth[0].queue queueBitLength:timeavg 0
attr autoWarmupFilter false
attr interpolationmode sample-hold
attr recordingmode timeavg
attr source "warmup(atomic(constant0(packetPushEnded) + sum(packetLength(packetPushStarted)) - sum(packetLength(packetPulled)) - sum(packetLength(packetRemoved)) - sum(packetLength(packetDropped))))"
attr title "queue bit length, timeavg"
attr unit b
statistic StaticAP.server.eth[0].queue queueingTime:histogram
field count 601
field mean 0
field stddev 0
field min 0
field max 0
field sum 0
field sqrsum 0
attr interpolationmode none
attr recordingmode histogram
attr source queueingTime(packetPulled)
attr title "queueing times"
attr unit s
bin	-inf	0
bin	-0.5	0
bin	-0.48	0
bin	-0.46	0
bin	-0.44	0
bin	-0.42	0
bin	-0.4	0
bin	-0.38	0
bin	-0.36	0
bin	-0.34	0
bin	-0.32	0
bin	-0.3	0
bin	-0.28	0
bin	-0.26	0
bin	-0.24	0
bin	-0.22	0
bin	-0.2	0
bin	-0.18	0
bin	-0.16	0
bin	-0.14	0
bin	-0.12	0
bin	-0.1	0
bin	-0.08	0
bin	-0.06	0
bin	-0.04	0
bin	-0.02	0
bin	0	601
bin	0.02	0
bin	0.04	0
bin	0.06	0
bin	0.08	0
bin	0.1	0
bin	0.12	0
bin	0.14	0
bin	0.16	0
bin	0.18	0
bin	0.2	0
bin	0.22	0
bin	0.24	0
bin	0.26	0
bin	0.28	0
bin	0.3	0
bin	0.32	0
bin	0.34	0
bin	0.36	0
bin	0.38	0
bin	0.4	0
bin	0.42	0
bin	0.44	0
bin	0.46	0
bin	0.48	0
bin	0.5	0
scalar StaticAP.server.eth[0].queue outgoingPackets:count 601
attr recordingmode count
attr source packetPulled
attr title "outgoing packets, count"
attr unit pk
scalar StaticAP.server.eth[0].queue outgoingPacketLengths:sum 1759728
attr interpolationmode none
attr recordingmode sum
attr source packetLength(packetPulled)
attr title "outgoing packet lengths, sum"
attr unit b
statistic StaticAP.server.eth[0].queue outgoingPacketLengths:histogram
field count 601
field mean 2928
field stddev 0
field min 2928
field max 2928
field sum 1759728
field sqrsum 5152483584
attr interpolationmode none
attr recordingmode histogram
attr source packetLength(packetPulled)
attr title "outgoing packet lengths"
attr unit b
bin	-inf	0
bin	2927	0
bin	2928	601
bin	2929	0
statistic StaticAP.server.eth[0].queue flowQueueingTime:histogram
field count 0
field mean nan
field stddev nan
field min nan
field max nan
field sum 0
field sqrsum 0
attr interpolationmode none
attr recordingmode histogram
attr source queueingTime(demuxFlow(packetPulled))
attr title "flow queueing times"
attr unit s
bin	-inf	0
bin	0	0
bin	1	0
scalar StaticAP.server.eth[0].queue incomingPackets:count 601
attr recordingmode count
attr source packetPushStarted
attr title "incoming packets, count"
attr unit pk
scalar StaticAP.server.eth[0].queue incomingPacketLengths:sum 1759728
attr interpolationmode none
attr recordingmode sum
attr source packetLength(packetPushStarted)
attr title "incoming packet lengths, sum"
attr unit b
statistic StaticAP.server.eth[0].queue incomingPacketLengths:histogram
field count 601
field mean 2928
field stddev 0
field min 2928
field max 2928
field sum 1759728
field sqrsum 5152483584
attr interpolationmode none
attr recordingmode histogram
attr source packetLength(packetPushStarted)
attr title "incoming packet lengths"
attr unit b
bin	-inf	0
bin	2927	0
bin	2928	601
bin	2929	0
scalar StaticAP.server.eth[0].queue droppedPacketsQueueOverflow:count 0
attr interpolationmode none
attr recordingmode count
attr source packetDropReasonIsQueueOverflow(packetDropped)
attr title "dropped packets: queue overflow, count"
attr unit pk
scalar StaticAP.server.eth[0].queue droppedPacketLengthsQueueOverflow:sum 0
attr interpolationmode none
attr recordingmode sum
attr source packetLength(packetDropReasonIsQueueOverflow(packetDropped))
attr title "dropped packet lengths: queue overflow, sum"
attr unit b
par StaticAP.server.eth[0].mac typename "\"inet.linklayer.ethernet.basic.EthernetMac\""
par StaticAP.server.eth[0].mac interfaceTableModule "\"StaticAP.server.interfaceTable\""
par StaticAP.server.eth[0].mac displayStringTextFormat "\"rate: %b\\nsent: %s, rcvd: %r\\nqueue: %q, drop: %d\""
par StaticAP.server.eth[0].mac sendRawBytes false
par StaticAP.server.eth[0].mac promiscuous false
par StaticAP.server.eth[0].mac duplexMode true
par StaticAP.server.eth[0].mac mtu 1500B
attr unit B
par StaticAP.server.eth[0].mac fcsMode "\"declared\""
attr enum declared,computed
par StaticAP.server.eth[0].mac stopOperationExtraTime -1s
attr unit s
par StaticAP.server.eth[0].mac stopOperationTimeout 2s
attr unit s
scalar StaticAP.server.eth[0].mac "simulated time" 20
scalar StaticAP.server.eth[0].mac full-duplex 1
scalar StaticAP.server.eth[0].mac "frames/sec sent" 32.8
scalar StaticAP.server.eth[0].mac "frames/sec rcvd" 138.8
scalar StaticAP.server.eth[0].mac "bits/sec sent" 95917.6
scalar StaticAP.server.eth[0].mac "bits/sec rcvd" 958503.2
scalar StaticAP.server.eth[0].mac "rx channel idle (%)" 99.990326136
scalar StaticAP.server.eth[0].mac "rx channel utilization (%)" 0.009673864
scalar StaticAP.server.eth[0].mac txPk:count 601
attr interpolationmode none
attr recordingmode count
attr source packetSentToLower
attr title "packets transmitted, count"
scalar StaticAP.server.eth[0].mac txPk:sum(packetBytes) 219966
attr interpolationmode none
attr recordingmode sum(packetBytes)
attr source packetSentToLower
attr title "packets transmitted, sum(packetBytes)"
scalar StaticAP.server.eth[0].mac packetReceivedFromUpper:count 601
attr interpolationmode none
attr recordingmode count
attr source packetReceivedFromUpper
attr title "packet bytes from higher layer, count"
scalar StaticAP.server.eth[0].mac packetReceivedFromUpper:sum(packetBytes) 219966
attr interpolationmode none
attr recordingmode sum(packetBytes)
attr source packetReceivedFromUpper
attr title "packet bytes from higher layer, sum(packetBytes)"
scalar StaticAP.server.eth[0].mac passedUpPk:count 2604
attr interpolationmode none
attr recordingmode count
attr source packetSentToUpper
attr title "packets passed to higher layer, count"
scalar StaticAP.server.eth[0].mac passedUpPk:sum(packetBytes) 2255464
attr interpolationmode none
attr recordingmode sum(packetBytes)
attr source packetSentToUpper
attr title "packets passed to higher layer, sum(packetBytes)"
scalar StaticAP.server.eth[0].mac packetDropIncorrectlyReceived:count 0
attr interpolationmode none
attr recordingmode count
attr source packetDropReasonIsIncorrectlyReceived(packetDropped)
attr title "packet drop: incorrectly received, count"
scalar StaticAP.server.eth[0].mac packetDropIncorrectlyReceived:sum(packetBytes) 0
attr interpolationmode none
attr recordingmode sum(packetBytes)
attr source packetDropReasonIsIncorrectlyReceived(packetDropped)
attr title "packet drop: incorrectly received, sum(packetBytes)"
scalar StaticAP.server.eth[0].mac packetDropInterfaceDown:count 0
attr interpolationmode none
attr recordingmode count
attr source packetDropReasonIsInterfaceDown(packetDropped)
attr title "packet drop: interface down, count"
scalar StaticAP.server.eth[0].mac packetDropInterfaceDown:sum(packetBytes) 0
attr interpolationmode none
attr recordingmode sum(packetBytes)
attr source packetDropReasonIsInterfaceDown(packetDropped)
attr title "packet drop: interface down, sum(packetBytes)"
scalar StaticAP.server.eth[0].mac packetDropNotAddressedToUs:count 0
attr interpolationmode none
attr recordingmode count
attr source packetDropReasonIsNotAddressedToUs(packetDropped)
attr title "packet drop: not addressed to us, count"
scalar StaticAP.server.eth[0].mac packetDropNotAddressedToUs:sum(packetBytes) 0
attr interpolationmode none
attr recordingmode sum(packetBytes)
attr source packetDropReasonIsNotAddressedToUs(packetDropped)
attr title "packet drop: not addressed to us, sum(packetBytes)"
scalar StaticAP.server.eth[0].mac rxPausePkUnits:count 0
attr interpolationmode none
attr recordingmode count
attr title "pause units received, count"
scalar StaticAP.server.eth[0].mac rxPausePkUnits:sum 0
attr interpolationmode none
attr recordingmode sum
attr title "pause units received, sum"
scalar StaticAP.server.eth[0].mac txPausePkUnits:count 0
attr interpolationmode none
attr recordingmode count
attr title "pause units sent, count"
scalar StaticAP.server.eth[0].mac txPausePkUnits:sum 0
attr interpolationmode none
attr recordingmode sum
attr title "pause units sent, sum"
scalar StaticAP.server.eth[0].mac rxPkOk:count 2604
attr interpolationmode none
attr recordingmode count
attr source rxPkOk
attr title "packets received OK, count"
scalar StaticAP.server.eth[0].mac rxPkOk:sum(packetBytes) 2255464
attr interpolationmode none
attr recordingmode sum(packetBytes)
attr source rxPkOk
attr title "packets received OK, sum(packetBytes)"
par StaticAP.server.eth[0] typename "\"inet.linklayer.ethernet.EthernetInterface\""
par StaticAP.server.eth[0] displayStringTextFormat "\"%a (%i)\\n%m\""
par StaticAP.server.eth[0] recordPcap false
par StaticAP.server.eth[0] numPcapRecorders 0
par StaticAP.server.eth[0] interfaceTableModule "\"StaticAP.server.interfaceTable\""
par StaticAP.server.eth[0] protocol "\"ethernetmac\""
par StaticAP.server.eth[0] address "\"0A-AA-00-00-00-01\""
attr mutable ""
par StaticAP.server.eth[0] duplexMode true
par StaticAP.server.eth[0] csmacdSupport false
par StaticAP.server.eth[0] bitrate 0bps
attr unit bps
par StaticAP.server.eth[0] fcsMode "\"declared\""
attr enum declared,computed
scalar StaticAP.server.eth[0] packetDropInterfaceDown:count 0
attr interpolationmode none
attr recordingmode count
attr source packetDropReasonIsInterfaceDown(packetDropped)
attr title "packet drops: interface down, count"
scalar StaticAP.server.eth[0] packetDropInterfaceDown:sum(packetBytes) 0
attr interpolationmode none
attr recordingmode sum(packetBytes)
attr source packetDropReasonIsInterfaceDown(packetDropped)
attr title "packet drops: interface down, sum(packetBytes)"
scalar StaticAP.server.eth[0] packetDropNoCarrier:count 0
attr interpolationmode none
attr recordingmode count
attr source packetDropReasonIsNoCarrier(packetDropped)
attr title "packet drops: no carrier, count"
scalar StaticAP.server.eth[0] packetDropNoCarrier:sum(packetBytes) 0
attr interpolationmode none
attr recordingmode sum(packetBytes)
attr source packetDropReasonIsNoCarrier(packetDropped)
attr title "packet drops: no carrier, sum(packetBytes)"
par StaticAP.server.ipv4.transportIn.channel typename "\"ned.IdealChannel\""
par StaticAP.server.ipv4.up.out[0].channel typename "\"ned.IdealChannel\""
par StaticAP.server.ipv4.lp.out[2].channel typename "\"ned.IdealChannel\""
par StaticAP.server.ipv4.ifIn.channel typename "\"ned.IdealChannel\""
par StaticAP.server.ipv4.configurator typename "\"inet.networklayer.configurator.ipv4.Ipv4NodeConfigurator\""
par StaticAP.server.ipv4.configurator interfaceTableModule "\"StaticAP.server.interfaceTable\""
par StaticAP.server.ipv4.configurator routingTableModule "\"StaticAP.server.ipv4.routingTable\""
par StaticAP.server.ipv4.configurator networkConfiguratorModule "\"configurator\""
par StaticAP.server.ipv4.configurator configureRoutingTable true
par StaticAP.server.ipv4.routingTable typename "\"inet.networklayer.ipv4.Ipv4RoutingTable\""
par StaticAP.server.ipv4.routingTable interfaceTableModule "\"StaticAP.server.interfaceTable\""
par StaticAP.server.ipv4.routingTable routerId "\"auto\""
par StaticAP.server.ipv4.routingTable netmaskRoutes "\"*\""
par StaticAP.server.ipv4.routingTable forwarding false
par StaticAP.server.ipv4.routingTable multicastForwarding false
par StaticAP.server.ipv4.routingTable useAdminDist false
par StaticAP.server.ipv4.routingTable routingFile "\"\""
par StaticAP.server.ipv4.natTable typename "\"inet.networklayer.ipv4.Ipv4NatTable\""
par StaticAP.server.ipv4.natTable networkProtocolModule "\"^.ip\""
par StaticAP.server.ipv4.natTable config "<config/> at content:1"
par StaticAP.server.ipv4.up typename "\"inet.common.MessageDispatcher\""
par StaticAP.server.ipv4.up displayStringTextFormat "\"processed %p pk (%l)\""
par StaticAP.server.ipv4.up forwardServiceRegistration true
par StaticAP.server.ipv4.up forwardProtocolRegistration true
par StaticAP.server.ipv4.igmp typename "\"inet.networklayer.ipv4.Igmpv2\""
par StaticAP.server.ipv4.igmp interfaceTableModule "\"StaticAP.server.interfaceTable\""
par StaticAP.server.ipv4.igmp routingTableModule "\"StaticAP.server.ipv4.routingTable\""
par StaticAP.server.ipv4.igmp crcMode "\"declared\""
attr enum declared,computed
par StaticAP.server.ipv4.igmp enabled true
par StaticAP.server.ipv4.igmp robustnessVariable 2
par StaticAP.server.ipv4.igmp queryInterval 125s
attr unit s
par StaticAP.server.ipv4.igmp queryResponseInterval 10s
attr unit s
par StaticAP.server.ipv4.igmp groupMembershipInterval 260s
attr unit s
par StaticAP.server.ipv4.igmp otherQuerierPresentInterval 255s
attr unit s
par StaticAP.server.ipv4.igmp startupQueryInterval 31.25s
attr unit s
par StaticAP.server.ipv4.igmp startupQueryCount 2
par StaticAP.server.ipv4.igmp lastMemberQueryInterval 1s
attr unit s
par StaticAP.server.ipv4.igmp lastMemberQueryCount 2
par StaticAP.server.ipv4.igmp unsolicitedReportInterval 10s
attr unit s
par StaticAP.server.ipv4.icmp typename "\"inet.networklayer.ipv4.Icmp\""
par StaticAP.server.ipv4.icmp interfaceTableModule "\"StaticAP.server.interfaceTable\""
par StaticAP.server.ipv4.icmp routingTableModule "\"StaticAP.server.ipv4.routingTable\""
par StaticAP.server.ipv4.icmp crcMode "\"declared\""
attr enum declared,computed
attr mutable ""
par StaticAP.server.ipv4.icmp quoteLength 8B
attr mutable ""
attr unit B
par StaticAP.server.ipv4.mp typename "\"inet.common.MessageDispatcher\""
par StaticAP.server.ipv4.mp displayStringTextFormat "\"processed %p pk (%l)\""
par StaticAP.server.ipv4.mp forwardServiceRegistration true
par StaticAP.server.ipv4.mp forwardProtocolRegistration true
par StaticAP.server.ipv4.ip typename "\"inet.networklayer.ipv4.Ipv4\""
par StaticAP.server.ipv4.ip interfaceTableModule "\"StaticAP.server.interfaceTable\""
par StaticAP.server.ipv4.ip routingTableModule "\"StaticAP.server.ipv4.routingTable\""
par StaticAP.server.ipv4.ip arpModule "\"StaticAP.server.ipv4.arp\""
par StaticAP.server.ipv4.ip icmpModule "\"StaticAP.server.ipv4.icmp\""
par StaticAP.server.ipv4.ip crcMode "\"declared\""
attr enum declared,computed
par StaticAP.server.ipv4.ip timeToLive 32
par StaticAP.server.ipv4.ip multicastTimeToLive 32
par StaticAP.server.ipv4.ip fragmentTimeout 60s
attr unit s
par StaticAP.server.ipv4.ip limitedBroadcast false
par StaticAP.server.ipv4.ip directBroadcastInterfaces "\"\""
scalar StaticAP.server.ipv4.ip packetDropAddressResolutionFailed:count 0
attr interpolationmode none
attr recordingmode count
attr source packetDropReasonIsAddressResolutionFailed(packetDropped)
attr title "packet drop: address resolution failed, count"
scalar StaticAP.server.ipv4.ip packetDropAddressResolutionFailed:sum(packetBytes) 0
attr interpolationmode none
attr recordingmode sum(packetBytes)
attr source packetDropReasonIsAddressResolutionFailed(packetDropped)
attr title "packet drop: address resolution failed, sum(packetBytes)"
[...]
attr source packetDropReasonIsNoCarrier(packetDropped)
attr title "packet drops: no carrier, sum(packetBytes)"
par StaticAP.client[0].ipv4.transportIn.channel typename "\"ned.IdealChannel\""
par StaticAP.client[0].ipv4.up.out[0].channel typename "\"ned.IdealChannel\""
par StaticAP.client[0].ipv4.lp.out[2].channel typename "\"ned.IdealChannel\""
par StaticAP.client[0].ipv4.ifIn.channel typename "\"ned.IdealChannel\""
par StaticAP.client[0].ipv4.configurator typename "\"inet.networklayer.configurator.ipv4.Ipv4NodeConfigurator\""
par StaticAP.client[0].ipv4.configurator interfaceTableModule "\"StaticAP.client[0].interfaceTable\""
par StaticAP.client[0].ipv4.configurator routingTableModule "\"StaticAP.client[0].ipv4.routingTable\""
par StaticAP.client[0].ipv4.configurator networkConfiguratorModule "\"configurator\""
par StaticAP.client[0].ipv4.configurator configureRoutingTable true
par StaticAP.client[0].ipv4.routingTable typename "\"inet.networklayer.ipv4.Ipv4RoutingTable\""
par StaticAP.client[0].ipv4.routingTable interfaceTableModule "\"StaticAP.client[0].interfaceTable\""
par StaticAP.client[0].ipv4.routingTable routerId "\"auto\""
par StaticAP.client[0].ipv4.routingTable netmaskRoutes "\"*\""
par StaticAP.client[0].ipv4.routingTable forwarding false
par StaticAP.client[0].ipv4.routingTable multicastForwarding false
par StaticAP.client[0].ipv4.routingTable useAdminDist false
par StaticAP.client[0].ipv4.routingTable routingFile "\"\""
par StaticAP.client[0].ipv4.natTable typename "\"inet.networklayer.ipv4.Ipv4NatTable\""
par StaticAP.client[0].ipv4.natTable networkProtocolModule "\"^.ip\""
par StaticAP.client[0].ipv4.natTable config "<config/> at content:1"
par StaticAP.client[0].ipv4.up typename "\"inet.common.MessageDispatcher\""
par StaticAP.client[0].ipv4.up displayStringTextFormat "\"processed %p pk (%l)\""
par StaticAP.client[0].ipv4.up forwardServiceRegistration true
par StaticAP.client[0].ipv4.up forwardProtocolRegistration true
par StaticAP.client[0].ipv4.igmp typename "\"inet.networklayer.ipv4.Igmpv2\""
par StaticAP.client[0].ipv4.igmp interfaceTableModule "\"StaticAP.client[0].interfaceTable\""
par StaticAP.client[0].ipv4.igmp routingTableModule "\"StaticAP.client[0].ipv4.routingTable\""
par StaticAP.client[0].ipv4.igmp crcMode "\"declared\""
attr enum declared,computed
par StaticAP.client[0].ipv4.igmp enabled true
par StaticAP.client[0].ipv4.igmp robustnessVariable 2
par StaticAP.client[0].ipv4.igmp queryInterval 125s
attr unit s
par StaticAP.client[0].ipv4.igmp queryResponseInterval 10s
attr unit s
par StaticAP.client[0].ipv4.igmp groupMembershipInterval 260s
attr unit s
par StaticAP.client[0].ipv4.igmp otherQuerierPresentInterval 255s
attr unit s
par StaticAP.client[0].ipv4.igmp startupQueryInterval 31.25s
attr unit s
par StaticAP.client[0].ipv4.igmp startupQueryCount 2
par StaticAP.client[0].ipv4.igmp lastMemberQueryInterval 1s
attr unit s
par StaticAP.client[0].ipv4.igmp lastMemberQueryCount 2
par StaticAP.client[0].ipv4.igmp unsolicitedReportInterval 10s
attr unit s
par StaticAP.client[0].ipv4.icmp typename "\"inet.networklayer.ipv4.Icmp\""
par StaticAP.client[0].ipv4.icmp interfaceTableModule "\"StaticAP.client[0].interfaceTable\""
par StaticAP.client[0].ipv4.icmp routingTableModule "\"StaticAP.client[0].ipv4.routingTable\""
par StaticAP.client[0].ipv4.icmp crcMode "\"declared\""
attr enum declared,computed
attr mutable ""
par StaticAP.client[0].ipv4.icmp quoteLength 8B
attr mutable ""
attr unit B
par StaticAP.client[0].ipv4.mp typename "\"inet.common.MessageDispatcher\""
par StaticAP.client[0].ipv4.mp displayStringTextFormat "\"processed %p pk (%l)\""
par StaticAP.client[0].ipv4.mp forwardServiceRegistration true
par StaticAP.client[0].ipv4.mp forwardProtocolRegistration true
par StaticAP.client[0].ipv4.ip typename "\"inet.networklayer.ipv4.Ipv4\""
par StaticAP.client[0].ipv4.ip interfaceTableModule "\"StaticAP.client[0].interfaceTable\""
par StaticAP.client[0].ipv4.ip routingTableModule "\"StaticAP.client[0].ipv4.routingTable\""
par StaticAP.client[0].ipv4.ip arpModule "\"StaticAP.client[0].ipv4.arp\""
par StaticAP.client[0].ipv4.ip icmpModule "\"StaticAP.client[0].ipv4.icmp\""
par StaticAP.client[0].ipv4.ip crcMode "\"declared\""
attr enum declared,computed
par StaticAP.client[0].ipv4.ip timeToLive 32
par StaticAP.client[0].ipv4.ip multicastTimeToLive 32
par StaticAP.client[0].ipv4.ip fragmentTimeout 60s
attr unit s
par StaticAP.client[0].ipv4.ip limitedBroadcast false
par StaticAP.client[0].ipv4.ip directBroadcastInterfaces "\"\""
scalar StaticAP.client[0].ipv4.ip packetDropAddressResolutionFailed:count 0
attr interpolationmode none
attr recordingmode count
attr source packetDropReasonIsAddressResolutionFailed(packetDropped)
attr title "packet drop: address resolution failed, count"
scalar StaticAP.client[0].ipv4.ip packetDropAddressResolutionFailed:sum(packetBytes) 0
attr interpolationmode none
attr recordingmode sum(packetBytes)
attr source packetDropReasonIsAddressResolutionFailed(packetDropped)
attr title "packet drop: address resolution failed, sum(packetBytes)"
scalar StaticAP.client[0].ipv4.ip packetDropHopLimitReached:count 0
attr interpolationmode none
attr recordingmode count
attr source packetDropReasonIsHopLimitReached(packetDropped)
attr title "packet drop: hop limit reached, count"
scalar StaticAP.client[0].ipv4.ip packetDropHopLimitReached:sum(packetBytes) 0
attr interpolationmode none
attr recordingmode sum(packetBytes)
attr source packetDropReasonIsHopLimitReached(packetDropped)
attr title "packet drop: hop limit reached, sum(packetBytes)"
scalar StaticAP.client[0].ipv4.ip packetDropForwardingDisabled:count 0
attr interpolationmode none
attr recordingmode count
attr source packetDropReasonIsForwardingDisabled(packetDropped)
attr title "packet drop: forwarding disabled, count"
scalar StaticAP.client[0].ipv4.ip packetDropForwardingDisabled:sum(packetBytes) 0
attr interpolationmode none
attr recordingmode sum(packetBytes)
attr source packetDropReasonIsForwardingDisabled(packetDropped)
attr title "packet drop: forwarding disabled, sum(packetBytes)"
scalar StaticAP.client[0].ipv4.ip packetDropNoInterfaceFound:count 0
attr interpolationmode none
attr recordingmode count
attr source packetDropReasonIsNoInterfaceFound(packetDropped)
attr title "packet drop: no interface found, count"
scalar StaticAP.client[0].ipv4.ip packetDropNoInterfaceFound:sum(packetBytes) 0
attr interpolationmode none
attr recordingmode sum(packetBytes)
attr source packetDropReasonIsNoInterfaceFound(packetDropped)
attr title "packet drop: no interface found, sum(packetBytes)"
scalar StaticAP.client[0].ipv4.ip packetDropNoRouteFound:count 0
attr interpolationmode none
attr recordingmode count
attr source packetDropReasonIsNoRouteFound(packetDropped)
attr title "packet drop: no route found, count"
scalar StaticAP.client[0].ipv4.ip packetDropNoRouteFound:sum(packetBytes) 0
attr interpolationmode none
attr recordingmode sum(packetBytes)
attr source packetDropReasonIsNoRouteFound(packetDropped)
attr title "packet drop: no route found, sum(packetBytes)"
scalar StaticAP.client[0].ipv4.ip packetDropUndefined:count 0
attr interpolationmode none
attr recordingmode count
attr source packetDropReasonIsUndefined(packetDropped)
attr title "packet drop: undefined, count"
scalar StaticAP.client[0].ipv4.ip packetDropUndefined:sum(packetBytes) 0
attr interpolationmode none
attr recordingmode sum(packetBytes)
attr source packetDropReasonIsUndefined(packetDropped)
attr title "packet drop: undefined, sum(packetBytes)"
par StaticAP.client[0].ipv4.arp typename "\"inet.networklayer.arp.ipv4.Arp\""
par StaticAP.client[0].ipv4.arp interfaceTableModule "\"StaticAP.client[0].interfaceTable\""
par StaticAP.client[0].ipv4.arp routingTableModule "\"StaticAP.client[0].ipv4.routingTable\""
par StaticAP.client[0].ipv4.arp retryTimeout 1s
attr unit s
par StaticAP.client[0].ipv4.arp retryCount 3
par StaticAP.client[0].ipv4.arp cacheTimeout 120s
attr unit s
par StaticAP.client[0].ipv4.arp proxyArpInterfaces "\"\""
scalar StaticAP.client[0].ipv4.arp arpReplySent:count 0
attr recordingmode count
attr source arpReplySent
attr title "ARP replies sent, count"
scalar StaticAP.client[0].ipv4.arp arpReplySent:sum(packetBytes) 0
attr recordingmode sum(packetBytes)
attr source arpReplySent
attr title "ARP replies sent, sum(packetBytes)"
scalar StaticAP.client[0].ipv4.arp arpRequestSent:count 0
attr recordingmode count
attr source arpRequestSent
attr title "ARP request sent, count"
scalar StaticAP.client[0].ipv4.arp arpRequestSent:sum(packetBytes) 0
attr recordingmode sum(packetBytes)
attr source arpRequestSent
attr title "ARP request sent, sum(packetBytes)"
scalar StaticAP.client[0].ipv4.arp arpResolutionFailed:count 0
attr recordingmode count
attr title "ARP failed resolutions, count"
scalar StaticAP.client[0].ipv4.arp arpResolutionCompleted:count 0
attr recordingmode count
attr title "ARP completed resolutions, count"
scalar StaticAP.client[0].ipv4.arp arpResolutionInitiated:count 0
attr recordingmode count
attr title "ARP initiated resolutions, count"
par StaticAP.client[0].ipv4.lp typename "\"inet.common.MessageDispatcher\""
par StaticAP.client[0].ipv4.lp displayStringTextFormat "\"processed %p pk (%l)\""
par StaticAP.client[0].ipv4.lp forwardServiceRegistration true
par StaticAP.client[0].ipv4.lp forwardProtocolRegistration true
par StaticAP.client[0].ipv4 typename "\"inet.networklayer.ipv4.Ipv4NetworkLayer\""
par StaticAP.client[0].ipv4 forwarding false
par StaticAP.client[0].ipv4 multicastForwarding false
par StaticAP.client[0].ipv4 interfaceTableModule "\"StaticAP.client[0].interfaceTable\""
par StaticAP.client[0].ipv4 displayStringTextFormat "\"%i\""
par StaticAP.client[0].nl typename "\"inet.common.MessageDispatcher\""
par StaticAP.client[0].nl displayStringTextFormat "\"processed %p pk (%l)\""
par StaticAP.client[0].nl forwardServiceRegistration true
par StaticAP.client[0].nl forwardProtocolRegistration true
par StaticAP.client[0].udp typename "\"inet.transportlayer.udp.Udp\""
par StaticAP.client[0].udp interfaceTableModule "\"StaticAP.client[0].interfaceTable\""
par StaticAP.client[0].udp icmpModule "\"^.ipv4.icmp\""
par StaticAP.client[0].udp icmpv6Module "\"^.ipv6.icmpv6\""
par StaticAP.client[0].udp crcMode "\"declared\""
attr enum disabled,declared,computed
par StaticAP.client[0].udp defaultMulticastLoop true
scalar StaticAP.client[0].udp packetReceived:count 601
attr interpolationmode none
attr recordingmode count
attr source packetReceived
attr title "packets received, count"
scalar StaticAP.client[0].udp packetReceived:sum(packetBytes) 197128
attr interpolationmode none
attr recordingmode sum(packetBytes)
attr source packetReceived
attr title "packets received, sum(packetBytes)"
scalar StaticAP.client[0].udp packetSent:count 2604
attr interpolationmode none
attr recordingmode count
attr source packetSent
attr title "packets sent, count"
scalar StaticAP.client[0].udp packetSent:sum(packetBytes) 2156512
attr interpolationmode none
attr recordingmode sum(packetBytes)
attr source packetSent
attr title "packets sent, sum(packetBytes)"
scalar StaticAP.client[0].udp passedUpPk:count 601
attr interpolationmode none
attr recordingmode count
attr source packetSentToUpper
attr title "packets passed up, count"
scalar StaticAP.client[0].udp droppedPkWrongPort:count 0
attr interpolationmode none
attr recordingmode count
attr source packetDropReasonIsNoPortFound(packetDropped)
attr title "packets dropped (wrong port), count"
scalar StaticAP.client[0].udp droppedPkBadChecksum:count 0
attr interpolationmode none
attr recordingmode count
attr source packetDropReasonIsIncorrectlyReceived(packetDropped)
attr title "packets dropped (checksum error), count"
par StaticAP.client[0].tcp typename "\"inet.transportlayer.tcp.Tcp\""
par StaticAP.client[0].tcp crcMode "\"declared\""
attr enum declared,computed
par StaticAP.client[0].tcp advertisedWindow 7504
par StaticAP.client[0].tcp delayedAcksEnabled false
par StaticAP.client[0].tcp nagleEnabled true
par StaticAP.client[0].tcp limitedTransmitEnabled false
par StaticAP.client[0].tcp increasedIWEnabled false
par StaticAP.client[0].tcp sackSupport false
par StaticAP.client[0].tcp windowScalingSupport false
par StaticAP.client[0].tcp windowScalingFactor -1
par StaticAP.client[0].tcp timestampSupport false
par StaticAP.client[0].tcp mss 536
par StaticAP.client[0].tcp msl 120s
attr unit s
par StaticAP.client[0].tcp tcpAlgorithmClass "\"TcpReno\""
par StaticAP.client[0].tcp useDataNotification false
par StaticAP.client[0].tcp dupthresh 3
par StaticAP.client[0].tcp initialSsthresh 4294967295
par StaticAP.client[0].tcp stopOperationExtraTime 0s
attr unit s
par StaticAP.client[0].tcp stopOperationTimeout 2s
attr unit s
par StaticAP.client[0].tcp ecnWillingness false
par StaticAP.client[0].tcp dctcpGamma 0.0625
par StaticAP.client[0].tn typename "\"inet.common.MessageDispatcher\""
par StaticAP.client[0].tn displayStringTextFormat "\"processed %p pk (%l)\""
par StaticAP.client[0].tn forwardServiceRegistration true
par StaticAP.client[0].tn forwardProtocolRegistration true
par StaticAP.client[0].app[0] typename "\"simu5g.apps.voip.VoIPReceiver\""
par StaticAP.client[0].app[0] localPort 3000
par StaticAP.client[0].app[0] emodel_Ie_ 5
par StaticAP.client[0].app[0] emodel_Bpl_ 10
par StaticAP.client[0].app[0] emodel_A_ 5
par StaticAP.client[0].app[0] emodel_Ro_ 93.2
par StaticAP.client[0].app[0] playout_delay 0s
attr unit s
par StaticAP.client[0].app[0] dim_buffer 20
par StaticAP.client[0].app[0] sampling_time 0.02s
attr unit s
scalar StaticAP.client[0].app[0] voIPReceivedThroughput:mean 22131.47071855
attr recordingmode mean
attr source voIPReceivedThroughput
attr title "Throughput received at the application level, mean"
attr unit Bps
scalar StaticAP.client[0].app[0] voIPTaildropLoss:mean 0.001984126984127
attr recordingmode mean
attr source voIPTaildropLoss
attr title "VoIP Tail Drop Loss, mean"
attr unit ratio
scalar StaticAP.client[0].app[0] voIPMos:mean 3.9638041832986
attr recordingmode mean
attr source voIPMos
attr title "VoIP Mos Signal, mean"
attr unit MOS
scalar StaticAP.client[0].app[0] voIPJitter:mean 8.6703364210526e-05
attr recordingmode mean
attr source voIPJitter
attr title "VoIP Playout Loss, mean"
attr unit s
scalar StaticAP.client[0].app[0] voIPPlayoutLoss:mean 0.032287157287157
attr recordingmode mean
attr source voIPPlayoutLoss
attr title "VoIP Playout Loss, mean"
attr unit ratio
scalar StaticAP.client[0].app[0] voIPPlayoutDelay:mean 5.776147e-05
attr recordingmode mean
attr source voIPPlayoutDelay
attr title "VoIP Playout Delay, mean"
attr unit s
scalar StaticAP.client[0].app[0] voIPFrameDelay:mean 0.0002090192358736
attr recordingmode mean
attr source voIPFrameDelay
attr title "VoIP Frame Delay, mean"
attr unit s
scalar StaticAP.client[0].app[0] voIPFrameLoss:mean 0
attr recordingmode mean
attr source voIPFrameLoss
attr title "VoIP Frame Loss, mean"
attr unit ratio
par StaticAP.client[0].app[1] typename "\"simu5g.apps.voip.VoIPSender\""
par StaticAP.client[0].app[1] localPort 4088
par StaticAP.client[0].app[1] destPort 4000
par StaticAP.client[0].app[1] destAddress "\"server\""
par StaticAP.client[0].app[1] PacketSize 320
par StaticAP.client[0].app[1] shape_talk 0.824
par StaticAP.client[0].app[1] scale_talk 1.423
par StaticAP.client[0].app[1] shape_sil 1.089
par StaticAP.client[0].app[1] scale_sil 0.899
par StaticAP.client[0].app[1] is_talk true
par StaticAP.client[0].app[1] sampling_time 0.02s
attr unit s
par StaticAP.client[0].app[1] startTime 0.0108977s
attr unit s
par StaticAP.client[0].app[1] silences true
par StaticAP.client[0].app[1] tos -1
scalar StaticAP.client[0].app[1] voIPGeneratedThroughput:mean 13736.798083918
attr recordingmode mean
attr source voIPGeneratedThroughput
attr title "Throughput generated by the application, mean"
attr unit Bps
par StaticAP.client[0].app[2] typename "\"inet.applications.udpapp.UdpBasicApp\""
par StaticAP.client[0].app[2] interfaceTableModule "\"StaticAP.client[0].interfaceTable\""
par StaticAP.client[0].app[2] clockModule "\"\""
par StaticAP.client[0].app[2] localPort -1
par StaticAP.client[0].app[2] destAddresses "\"server\""
par StaticAP.client[0].app[2] localAddress "\"\""
par StaticAP.client[0].app[2] packetName "\"UdpBasicAppData\""
par StaticAP.client[0].app[2] destPort 5000
par StaticAP.client[0].app[2] messageLength 1024B
attr unit B
par StaticAP.client[0].app[2] startTime 0.0847252s
attr unit s
par StaticAP.client[0].app[2] stopTime -1s
attr unit s
par StaticAP.client[0].app[2] sendInterval 0.01s
attr unit s
par StaticAP.client[0].app[2] timeToLive -1
par StaticAP.client[0].app[2] dontFragment false
par StaticAP.client[0].app[2] dscp -1
par StaticAP.client[0].app[2] tos -1
par StaticAP.client[0].app[2] multicastInterface "\"\""
par StaticAP.client[0].app[2] receiveBroadcast false
par StaticAP.client[0].app[2] joinLocalMulticastGroups false
par StaticAP.client[0].app[2] stopOperationExtraTime -1s
attr unit s
par StaticAP.client[0].app[2] stopOperationTimeout 2s
attr unit s
scalar StaticAP.client[0].app[2] "packets sent" 1992
scalar StaticAP.client[0].app[2] "packets received" 0
scalar StaticAP.client[0].app[2] packetReceived:count 0
attr interpolationmode none
attr recordingmode count
attr source packetReceived
attr title "packets received, count"
scalar StaticAP.client[0].app[2] packetReceived:sum(packetBytes) 0
attr interpolationmode none
attr recordingmode sum(packetBytes)
attr source packetReceived
attr title "packets received, sum(packetBytes)"
statistic StaticAP.client[0].app[2] rcvdPkLifetime:stats
field count 0
field mean nan
field stddev nan
field min nan
field max nan
field sum 0
field sqrsum 0
attr interpolationmode none
attr recordingmode stats
attr source dataAge(packetReceived)
attr title "received packet lifetime"
attr unit s
scalar StaticAP.client[0].app[2] packetSent:count 1850
attr interpolationmode none
attr recordingmode count
attr source packetSent
attr title "packets sent, count"
scalar StaticAP.client[0].app[2] packetSent:sum(packetBytes) 1894400
attr interpolationmode none
attr recordingmode sum(packetBytes)
attr source packetSent
attr title "packets sent, sum(packetBytes)"
par StaticAP.client[0].at typename "\"inet.common.MessageDispatcher\""
par StaticAP.client[0].at displayStringTextFormat "\"processed %p pk (%l)\""
par StaticAP.client[0].at forwardServiceRegistration true
par StaticAP.client[0].at forwardProtocolRegistration true
par StaticAP.client[0] typename "\"inet.node.inet.WirelessHost\""
par StaticAP.client[0] hasStatus false
par StaticAP.client[0] osgModel "\"\""
par StaticAP.client[0] osgModelColor "\"\""
par StaticAP.client[0] canvasImage "\"\""
par StaticAP.client[0] canvasImageColor "\"\""
par StaticAP.client[0] recordPcap false
par StaticAP.client[0] numPcapRecorders 0
par StaticAP.client[0] numLoInterfaces 1
par StaticAP.client[0] numWlanInterfaces 1
par StaticAP.client[0] numEthInterfaces 0
par StaticAP.client[0] numPppInterfaces 0
par StaticAP.client[0] numTunInterfaces 0
par StaticAP.client[0] numVirtInterfaces 0
par StaticAP.client[0] fcsMode "\"declared\""
attr enum declared,computed
par StaticAP.client[0] hasIpv4 true
par StaticAP.client[0] hasIpv6 false
par StaticAP.client[0] hasGn false
par StaticAP.client[0] forwarding false
par StaticAP.client[0] multicastForwarding false
par StaticAP.client[0] hasUdp true
par StaticAP.client[0] hasTcp true
par StaticAP.client[0] hasSctp false
par StaticAP.client[0] numApps 3
par StaticAP typename "\"abcd.simulations.StaticAP\""
par StaticAP numUe 1

