version 3
run VoIP_No-QoS-0-20250715-21:43:26-12680
attr configname VoIP_No-QoS
attr datetime 20250715-21:43:26
attr datetimef 20250715-214326
attr experiment VoIP_No-QoS
attr inifile static_lte.ini
attr iterationvars "$numUEs=1, $directions=2"
attr iterationvarsd numUEs=1/directions=2
attr iterationvarsf numUEs=1,directions=2-
attr measurement "$numUEs=1, $directions=2"
attr network abcd.simulations.StaticLTE
attr processid 12680
attr repetition 0
attr replication #0
attr resultdir results
attr runnumber 0
attr seedset 0
itervar directions 2
itervar numUEs 1
config image-path ../../inet4.5/images;../../simu5g/images
config sim-time-limit 20s
config warmup-period 0s
config **.numUe 1
config **.vector-recording false
config **.mac.schedulingDisciplineDl "\"MAXCI\""
config **.mac.schedulingDisciplineUl "\"MAXCI\""
config **.rbAllocationType "\"localized\""
config **.ue[*].macCellId 1
config **.ue[*].masterId 1
config *.ue[*].mobility.initFromDisplayString true
config *.ue[*].mobility.initialX uniform(200m,400m)
config *.ue[*].mobility.initialY uniform(200m,400m)
config *.ue[*].mobility.initialZ 0m
config *.ue[*].mobility.speed 0mps
config *.ue[*].mobility.typename LinearMobility
config *.eNB.mobility.initFromDisplayString true
config *.eNB.mobility.initialX 300m
config *.eNB.mobility.initialY 300m
config *.ue[*].numApps 2
config *.server.numApps "2 * 1"
config *.server.app[0..0].typename VoIPReceiver
config *.server.app[0..0].localPort 4000+ancestorIndex(0)
config *.ue[*].app[1].PacketSize 40
config *.ue[*].app[1].destAddress "\"server\""
config *.ue[*].app[1].destPort 4000+ancestorIndex(1)
config *.ue[*].app[1].localPort 4088
config *.ue[*].app[1].typename VoIPSender
config *.ue[*].app[1].startTime uniform(0s,0.02s)
config *.ue[*].app[0].typename VoIPReceiver
config *.ue[*].app[0].localPort 3000
config *.server.app[1..].typename VoIPSender
config *.server.app[1..].PacketSize 40
config *.server.app[1..].destAddress "\"ue[\"+string(ancestorIndex(0)-1)+\"]\""
config *.server.app[1..].destPort 3000
config *.server.app[1..].localPort 3088+ancestorIndex(0)
config *.server.app[1..].startTime uniform(0s,0.02s)
config network abcd.simulations.StaticLTE
config output-scalar-file-append false
config sim-time-limit 20s
config warmup-period 0s
config output-scalar-file results/VoIP_No-QoS/0.sca
config output-vector-file results/VoIP_No-QoS/0.vec
config seed-set 0
config **.vector-recording false
config **.cmdenv-log-level INFO
config **.mobility.constraintAreaMinZ 0m
config **.mobility.constraintAreaMaxZ 0m
config **.mobility.initFromDisplayString true
config **.numBands 6
config **.ueTxPower 26
config **.eNodeBTxPower 30
config *.configurator.config "xmldoc(\"./demo.xml\")"

par StaticLTE.server.pppg$o[0].channel typename "\"inet.node.ethernet.Eth10G\""
par StaticLTE.server.pppg$o[0].channel disabled false
attr mutable ""
par StaticLTE.server.pppg$o[0].channel delay 5e-08s
attr mutable ""
attr unit s
par StaticLTE.server.pppg$o[0].channel datarate 1e+10bps
attr mutable ""
attr unit bps
par StaticLTE.server.pppg$o[0].channel ber 0
attr mutable ""
par StaticLTE.server.pppg$o[0].channel per 0
attr mutable ""
par StaticLTE.server.pppg$o[0].channel length 10m
attr unit m
par StaticLTE.router.pppg$o[0].channel typename "\"inet.node.ethernet.Eth10G\""
par StaticLTE.router.pppg$o[0].channel disabled false
attr mutable ""
par StaticLTE.router.pppg$o[0].channel delay 5e-08s
attr mutable ""
attr unit s
par StaticLTE.router.pppg$o[0].channel datarate 1e+10bps
attr mutable ""
attr unit bps
par StaticLTE.router.pppg$o[0].channel ber 0
attr mutable ""
par StaticLTE.router.pppg$o[0].channel per 0
attr mutable ""
par StaticLTE.router.pppg$o[0].channel length 10m
attr unit m
par StaticLTE.router.pppg$o[1].channel typename "\"inet.node.ethernet.Eth10G\""
par StaticLTE.router.pppg$o[1].channel disabled false
attr mutable ""
par StaticLTE.router.pppg$o[1].channel delay 5e-08s
attr mutable ""
attr unit s
par StaticLTE.router.pppg$o[1].channel datarate 1e+10bps
attr mutable ""
attr unit bps
par StaticLTE.router.pppg$o[1].channel ber 0
attr mutable ""
par StaticLTE.router.pppg$o[1].channel per 0
attr mutable ""
par StaticLTE.router.pppg$o[1].channel length 10m
attr unit m
par StaticLTE.pgw.filterGate$o.channel typename "\"inet.node.ethernet.Eth10G\""
par StaticLTE.pgw.filterGate$o.channel disabled false
attr mutable ""
par StaticLTE.pgw.filterGate$o.channel delay 5e-08s
attr mutable ""
attr unit s
par StaticLTE.pgw.filterGate$o.channel datarate 1e+10bps
attr mutable ""
attr unit bps
par StaticLTE.pgw.filterGate$o.channel ber 0
attr mutable ""
par StaticLTE.pgw.filterGate$o.channel per 0
attr mutable ""
par StaticLTE.pgw.filterGate$o.channel length 10m
attr unit m
par StaticLTE.pgw.pppg$o[0].channel typename "\"inet.node.ethernet.Eth10G\""
par StaticLTE.pgw.pppg$o[0].channel disabled false
attr mutable ""
par StaticLTE.pgw.pppg$o[0].channel delay 5e-08s
attr mutable ""
attr unit s
par StaticLTE.pgw.pppg$o[0].channel datarate 1e+10bps
attr mutable ""
attr unit bps
par StaticLTE.pgw.pppg$o[0].channel ber 0
attr mutable ""
par StaticLTE.pgw.pppg$o[0].channel per 0
attr mutable ""
par StaticLTE.pgw.pppg$o[0].channel length 10m
attr unit m
par StaticLTE.eNB.ppp$o.channel typename "\"inet.node.ethernet.Eth10G\""
par StaticLTE.eNB.ppp$o.channel disabled false
attr mutable ""
par StaticLTE.eNB.ppp$o.channel delay 5e-08s
attr mutable ""
attr unit s
par StaticLTE.eNB.ppp$o.channel datarate 1e+10bps
attr mutable ""
attr unit bps
par StaticLTE.eNB.ppp$o.channel ber 0
attr mutable ""
par StaticLTE.eNB.ppp$o.channel per 0
attr mutable ""
par StaticLTE.eNB.ppp$o.channel length 10m
attr unit m
par StaticLTE.channelControl typename "\"simu5g.world.radio.LteChannelControl\""
par StaticLTE.channelControl coreDebug false
par StaticLTE.channelControl pMax 20mW
attr unit mW
par StaticLTE.channelControl sat -110dBm
attr unit dBm
par StaticLTE.channelControl alpha 2
par StaticLTE.channelControl carrierFrequency 2.4e+09Hz
attr unit Hz
par StaticLTE.channelControl numChannels 1
par StaticLTE.channelControl propagationModel "\"FreeSpaceModel\""
attr enum FreeSpaceModel,TwoRayGroundModel,RiceModel,RayleighModel,NakagamiModel,LogNormalShadowingModel
par StaticLTE.visualizer.sceneVisualizer typename "\"inet.visualizer.canvas.scene.SceneCanvasVisualizer\""
par StaticLTE.visualizer.sceneVisualizer visualizationTargetModule "\"^.^\""
par StaticLTE.visualizer.sceneVisualizer visualizationSubjectModule "\"^.^\""
par StaticLTE.visualizer.sceneVisualizer tags "\"\""
par StaticLTE.visualizer.sceneVisualizer physicalEnvironmentModule "\"physicalEnvironment\""
par StaticLTE.visualizer.sceneVisualizer networkNodeVisualizerModule "\"^.networkNodeVisualizer\""
par StaticLTE.visualizer.sceneVisualizer axisLength "nan m"
attr mutable ""
attr unit m
par StaticLTE.visualizer.sceneVisualizer animationSpeed 0
par StaticLTE.visualizer.sceneVisualizer sceneMinX "nan m"
attr unit m
par StaticLTE.visualizer.sceneVisualizer sceneMinY "nan m"
attr unit m
par StaticLTE.visualizer.sceneVisualizer sceneMinZ "nan m"
attr unit m
par StaticLTE.visualizer.sceneVisualizer sceneMaxX "nan m"
attr unit m
par StaticLTE.visualizer.sceneVisualizer sceneMaxY "nan m"
attr unit m
par StaticLTE.visualizer.sceneVisualizer sceneMaxZ "nan m"
attr unit m
par StaticLTE.visualizer.sceneVisualizer zIndex 0
par StaticLTE.visualizer.sceneVisualizer viewAngle "\"x right y down z out\""
attr mutable ""
par StaticLTE.visualizer.sceneVisualizer viewScale "\"1 1\""
attr mutable ""
par StaticLTE.visualizer.sceneVisualizer viewTranslation "\"0 0\""
attr mutable ""
par StaticLTE.visualizer.sceneVisualizer descriptionFigure "\"\""
par StaticLTE.visualizer.physicalEnvironmentVisualizer typename "\"inet.visualizer.canvas.environment.PhysicalEnvironmentCanvasVisualizer\""
par StaticLTE.visualizer.physicalEnvironmentVisualizer visualizationTargetModule "\"^.^\""
par StaticLTE.visualizer.physicalEnvironmentVisualizer visualizationSubjectModule "\"^.^\""
par StaticLTE.visualizer.physicalEnvironmentVisualizer tags "\"\""
par StaticLTE.visualizer.physicalEnvironmentVisualizer physicalEnvironmentModule "\"physicalEnvironment\""
par StaticLTE.visualizer.physicalEnvironmentVisualizer displayObjects true
par StaticLTE.visualizer.physicalEnvironmentVisualizer zIndex 0
par StaticLTE.visualizer.networkNodeVisualizer typename "\"inet.visualizer.canvas.scene.NetworkNodeCanvasVisualizer\""
par StaticLTE.visualizer.networkNodeVisualizer visualizationTargetModule "\"^.^\""
par StaticLTE.visualizer.networkNodeVisualizer visualizationSubjectModule "\"^.^\""
par StaticLTE.visualizer.networkNodeVisualizer tags "\"\""
par StaticLTE.visualizer.networkNodeVisualizer nodeFilter "\"*\""
attr mutable ""
par StaticLTE.visualizer.networkNodeVisualizer annotationSpacing 4
par StaticLTE.visualizer.networkNodeVisualizer placementPenalty 10
par StaticLTE.visualizer.networkNodeVisualizer zIndex 0
par StaticLTE.visualizer.networkConnectionVisualizer typename "\"inet.visualizer.canvas.scene.NetworkConnectionCanvasVisualizer\""
par StaticLTE.visualizer.networkConnectionVisualizer visualizationTargetModule "\"^.^\""
par StaticLTE.visualizer.networkConnectionVisualizer visualizationSubjectModule "\"^.^\""
par StaticLTE.visualizer.networkConnectionVisualizer tags "\"\""
par StaticLTE.visualizer.networkConnectionVisualizer displayNetworkConnections true
par StaticLTE.visualizer.networkConnectionVisualizer nodeFilter "\"\""
attr mutable ""
par StaticLTE.visualizer.networkConnectionVisualizer lineColor "\"black\""
par StaticLTE.visualizer.networkConnectionVisualizer lineStyle "\"solid\""
par StaticLTE.visualizer.networkConnectionVisualizer lineWidth 1
par StaticLTE.visualizer.networkConnectionVisualizer zIndex 0
par StaticLTE.visualizer.mobilityVisualizer typename "\"inet.visualizer.canvas.mobility.MobilityCanvasVisualizer\""
par StaticLTE.visualizer.mobilityVisualizer visualizationTargetModule "\"^.^\""
par StaticLTE.visualizer.mobilityVisualizer visualizationSubjectModule "\"^.^\""
par StaticLTE.visualizer.mobilityVisualizer tags "\"\""
par StaticLTE.visualizer.mobilityVisualizer networkNodeVisualizerModule "\"^.networkNodeVisualizer\""
par StaticLTE.visualizer.mobilityVisualizer displayMobility true
par StaticLTE.visualizer.mobilityVisualizer animationSpeed 0
par StaticLTE.visualizer.mobilityVisualizer moduleFilter "\"**.mobility\""
attr mutable ""
par StaticLTE.visualizer.mobilityVisualizer displayPositions false
par StaticLTE.visualizer.mobilityVisualizer positionCircleRadius 4
par StaticLTE.visualizer.mobilityVisualizer positionCircleLineWidth 1
par StaticLTE.visualizer.mobilityVisualizer positionCircleLineColor "\"dark\""
par StaticLTE.visualizer.mobilityVisualizer positionCircleFillColor "\"dark\""
par StaticLTE.visualizer.mobilityVisualizer displayOrientations false
par StaticLTE.visualizer.mobilityVisualizer orientationPieRadius 32
par StaticLTE.visualizer.mobilityVisualizer orientationPieSize 0.2
par StaticLTE.visualizer.mobilityVisualizer orientationPieOpacity 0.25
par StaticLTE.visualizer.mobilityVisualizer orientationLineColor "\"black\""
par StaticLTE.visualizer.mobilityVisualizer orientationLineStyle "\"solid\""
par StaticLTE.visualizer.mobilityVisualizer orientationLineWidth 1
par StaticLTE.visualizer.mobilityVisualizer orientationFillColor "\"blue\""
par StaticLTE.visualizer.mobilityVisualizer displayVelocities false
par StaticLTE.visualizer.mobilityVisualizer velocityArrowScale 1
par StaticLTE.visualizer.mobilityVisualizer velocityLineColor "\"black\""
par StaticLTE.visualizer.mobilityVisualizer velocityLineStyle "\"solid\""
par StaticLTE.visualizer.mobilityVisualizer velocityLineWidth 1
par StaticLTE.visualizer.mobilityVisualizer displayMovementTrails false
par StaticLTE.visualizer.mobilityVisualizer movementTrailLineColor "\"dark\""
par StaticLTE.visualizer.mobilityVisualizer movementTrailLineStyle "\"solid\""
par StaticLTE.visualizer.mobilityVisualizer movementTrailLineWidth 1
par StaticLTE.visualizer.mobilityVisualizer trailLength 100
par StaticLTE.visualizer.mobilityVisualizer zIndex 0
par StaticLTE.visualizer.statisticVisualizer typename "\"inet.visualizer.canvas.common.StatisticCanvasVisualizer\""
par StaticLTE.visualizer.statisticVisualizer visualizationTargetModule "\"^.^\""
par StaticLTE.visualizer.statisticVisualizer visualizationSubjectModule "\"^.^\""
par StaticLTE.visualizer.statisticVisualizer tags "\"\""
par StaticLTE.visualizer.statisticVisualizer networkNodeVisualizerModule "\"^.networkNodeVisualizer\""
par StaticLTE.visualizer.statisticVisualizer displayStatistics true
par StaticLTE.visualizer.statisticVisualizer signalName "\"\""
par StaticLTE.visualizer.statisticVisualizer statisticName "\"\""
par StaticLTE.visualizer.statisticVisualizer statisticUnit "\"\""
par StaticLTE.visualizer.statisticVisualizer statisticExpression "\"\""
par StaticLTE.visualizer.statisticVisualizer sourceFilter "\"**\""
attr mutable ""
par StaticLTE.visualizer.statisticVisualizer format "\"%n: %v %u\""
attr mutable ""
par StaticLTE.visualizer.statisticVisualizer unit "\"\""
par StaticLTE.visualizer.statisticVisualizer font "\"<default>\""
par StaticLTE.visualizer.statisticVisualizer textColor "\"black\""
par StaticLTE.visualizer.statisticVisualizer backgroundColor "\"white\""
par StaticLTE.visualizer.statisticVisualizer opacity 1
par StaticLTE.visualizer.statisticVisualizer placementHint "\"top\""
par StaticLTE.visualizer.statisticVisualizer placementPriority 0
par StaticLTE.visualizer.statisticVisualizer zIndex 10
par StaticLTE.visualizer.statisticVisualizer propertyName "\"\""
par StaticLTE.visualizer.statisticVisualizer propertyIndex "\"\""
par StaticLTE.visualizer.infoVisualizer typename "\"inet.visualizer.canvas.common.InfoCanvasVisualizer\""
par StaticLTE.visualizer.infoVisualizer visualizationTargetModule "\"^.^\""
par StaticLTE.visualizer.infoVisualizer visualizationSubjectModule "\"^.^\""
par StaticLTE.visualizer.infoVisualizer tags "\"\""
par StaticLTE.visualizer.infoVisualizer networkNodeVisualizerModule "\"^.networkNodeVisualizer\""
par StaticLTE.visualizer.infoVisualizer displayInfos true
par StaticLTE.visualizer.infoVisualizer modules "\"\""
attr mutable ""
par StaticLTE.visualizer.infoVisualizer format "\"%t\""
attr mutable ""
par StaticLTE.visualizer.infoVisualizer font "\"<default>\""
par StaticLTE.visualizer.infoVisualizer textColor "\"black\""
par StaticLTE.visualizer.infoVisualizer backgroundColor "\"white\""
par StaticLTE.visualizer.infoVisualizer opacity 1
par StaticLTE.visualizer.infoVisualizer placementHint "\"top\""
par StaticLTE.visualizer.infoVisualizer placementPriority 0
par StaticLTE.visualizer.infoVisualizer zIndex 10
par StaticLTE.visualizer.energyStorageVisualizer typename "\"inet.visualizer.canvas.power.EnergyStorageCanvasVisualizer\""
par StaticLTE.visualizer.energyStorageVisualizer visualizationTargetModule "\"^.^\""
par StaticLTE.visualizer.energyStorageVisualizer visualizationSubjectModule "\"^.^\""
par StaticLTE.visualizer.energyStorageVisualizer tags "\"\""
par StaticLTE.visualizer.energyStorageVisualizer networkNodeVisualizerModule "\"^.networkNodeVisualizer\""
par StaticLTE.visualizer.energyStorageVisualizer displayEnergyStorages false
par StaticLTE.visualizer.energyStorageVisualizer energyStorageFilter "\"**\""
par StaticLTE.visualizer.energyStorageVisualizer color "\"green\""
par StaticLTE.visualizer.energyStorageVisualizer width 8
par StaticLTE.visualizer.energyStorageVisualizer height 24
par StaticLTE.visualizer.energyStorageVisualizer spacing 2
par StaticLTE.visualizer.energyStorageVisualizer placementHint "\"right\""
par StaticLTE.visualizer.energyStorageVisualizer placementPriority 0
par StaticLTE.visualizer.energyStorageVisualizer zIndex 10
par StaticLTE.visualizer.mediumVisualizer typename "\"inet.visualizer.canvas.physicallayer.MediumCanvasVisualizer\""
par StaticLTE.visualizer.mediumVisualizer visualizationTargetModule "\"^.^\""
par StaticLTE.visualizer.mediumVisualizer visualizationSubjectModule "\"^.^\""
par StaticLTE.visualizer.mediumVisualizer tags "\"\""
par StaticLTE.visualizer.mediumVisualizer mediumModule "\"radioMedium\""
par StaticLTE.visualizer.mediumVisualizer networkNodeVisualizerModule "\"^.networkNodeVisualizer\""
par StaticLTE.visualizer.mediumVisualizer nodeFilter "\"*\""
attr mutable ""
par StaticLTE.visualizer.mediumVisualizer interfaceFilter "\"*\""
attr mutable ""
par StaticLTE.visualizer.mediumVisualizer packetFilter "(omnetpp::cValueHolder)holder: \"*\""
attr mutable ""
par StaticLTE.visualizer.mediumVisualizer displaySignals false
par StaticLTE.visualizer.mediumVisualizer signalColor "\"dark\""
par StaticLTE.visualizer.mediumVisualizer signalPropagationAnimationSpeed "nan "
attr mutable ""
par StaticLTE.visualizer.mediumVisualizer signalPropagationAnimationTime 1s
attr unit s
par StaticLTE.visualizer.mediumVisualizer signalPropagationAdditionalTime 0s
attr unit s
par StaticLTE.visualizer.mediumVisualizer signalTransmissionAnimationSpeed "nan "
attr mutable ""
par StaticLTE.visualizer.mediumVisualizer signalTransmissionAnimationTime 1s
attr unit s
par StaticLTE.visualizer.mediumVisualizer signalAnimationSpeedChangeTimeMode "\"realTime\""
attr enum realTime,animationTime,simulationTime
par StaticLTE.visualizer.mediumVisualizer signalAnimationSpeedChangeTime 1s
attr unit s
par StaticLTE.visualizer.mediumVisualizer displaySignalDepartures false
par StaticLTE.visualizer.mediumVisualizer signalDepartureImage "\"misc/signal_departure.png\""
par StaticLTE.visualizer.mediumVisualizer signalDeparturePlacementHint "\"topCenter\""
par StaticLTE.visualizer.mediumVisualizer signalDeparturePlacementPriority 1
par StaticLTE.visualizer.mediumVisualizer displaySignalArrivals false
par StaticLTE.visualizer.mediumVisualizer signalArrivalImage "\"misc/signal_arrival.png\""
par StaticLTE.visualizer.mediumVisualizer signalArrivalPlacementHint "\"topCenter\""
par StaticLTE.visualizer.mediumVisualizer signalArrivalPlacementPriority -1
par StaticLTE.visualizer.mediumVisualizer displayCommunicationRanges false
par StaticLTE.visualizer.mediumVisualizer communicationRangeLineColor "\"blue\""
par StaticLTE.visualizer.mediumVisualizer communicationRangeLineStyle "\"solid\""
par StaticLTE.visualizer.mediumVisualizer communicationRangeLineWidth 1
par StaticLTE.visualizer.mediumVisualizer displayInterferenceRanges false
par StaticLTE.visualizer.mediumVisualizer interferenceRangeLineColor "\"gray\""
par StaticLTE.visualizer.mediumVisualizer interferenceRangeLineStyle "\"solid\""
par StaticLTE.visualizer.mediumVisualizer interferenceRangeLineWidth 1
par StaticLTE.visualizer.mediumVisualizer autoPowerAxis true
par StaticLTE.visualizer.mediumVisualizer signalMinPower "inf dBmW"
attr unit dBmW
par StaticLTE.visualizer.mediumVisualizer signalMaxPower 0dBmW
attr unit dBmW
par StaticLTE.visualizer.mediumVisualizer signalMinPowerDensity "inf dBmWpMHz"
attr unit dBmWpMHz
par StaticLTE.visualizer.mediumVisualizer signalMaxPowerDensity "-inf dBmWpMHz"
attr unit dBmWpMHz
par StaticLTE.visualizer.mediumVisualizer autoTimeAxis true
par StaticLTE.visualizer.mediumVisualizer signalMinTime 0s
attr unit s
par StaticLTE.visualizer.mediumVisualizer signalMaxTime 0s
attr unit s
par StaticLTE.visualizer.mediumVisualizer autoFrequencyAxis true
par StaticLTE.visualizer.mediumVisualizer signalMinFrequency "inf Hz"
attr unit Hz
par StaticLTE.visualizer.mediumVisualizer signalMaxFrequency "-inf Hz"
attr unit Hz
par StaticLTE.visualizer.mediumVisualizer displayMainPowerDensityMap false
par StaticLTE.visualizer.mediumVisualizer mainPowerDensityMapPixmapDensity 1
par StaticLTE.visualizer.mediumVisualizer mainPowerDensityMapMinX 0
par StaticLTE.visualizer.mediumVisualizer mainPowerDensityMapMaxX "nan "
par StaticLTE.visualizer.mediumVisualizer mainPowerDensityMapMinY 0
par StaticLTE.visualizer.mediumVisualizer mainPowerDensityMapMaxY "nan "
par StaticLTE.visualizer.mediumVisualizer mainPowerDensityMapZ 0
par StaticLTE.visualizer.mediumVisualizer mainPowerDensityMapFigureXTickCount 3
par StaticLTE.visualizer.mediumVisualizer mainPowerDensityMapFigureYTickCount 3
par StaticLTE.visualizer.mediumVisualizer displayPowerDensityMaps false
par StaticLTE.visualizer.mediumVisualizer powerDensityMapMode "\"auto\""
attr enum total,signal,auto
par StaticLTE.visualizer.mediumVisualizer powerDensityMapPixelMode "\"mean\""
attr enum sample,partition,mean
par StaticLTE.visualizer.mediumVisualizer powerDensityMapApproximationSize 10
par StaticLTE.visualizer.mediumVisualizer powerDensityMapCenterFrequency "nan Hz"
attr mutable ""
attr unit Hz
par StaticLTE.visualizer.mediumVisualizer powerDensityMapBandwidth 0Hz
attr mutable ""
attr unit Hz
par StaticLTE.visualizer.mediumVisualizer powerDensityMapFigureWidth 200
par StaticLTE.visualizer.mediumVisualizer powerDensityMapFigureHeight 120
par StaticLTE.visualizer.mediumVisualizer powerDensityMapPixmapWidth 200
par StaticLTE.visualizer.mediumVisualizer powerDensityMapPixmapHeight 120
par StaticLTE.visualizer.mediumVisualizer powerDensityMapZ 0
par StaticLTE.visualizer.mediumVisualizer powerDensityMapFigureXTickCount 3
par StaticLTE.visualizer.mediumVisualizer powerDensityMapFigureYTickCount 3
par StaticLTE.visualizer.mediumVisualizer displaySpectrums false
par StaticLTE.visualizer.mediumVisualizer spectrumMode "\"auto\""
attr enum total,signal,auto
par StaticLTE.visualizer.mediumVisualizer spectrumFigureWidth 200
par StaticLTE.visualizer.mediumVisualizer spectrumFigureHeight 120
par StaticLTE.visualizer.mediumVisualizer spectrumFigureXTickCount 3
par StaticLTE.visualizer.mediumVisualizer spectrumFigureYTickCount 5
par StaticLTE.visualizer.mediumVisualizer spectrumFigureInterpolationSize 5
par StaticLTE.visualizer.mediumVisualizer spectrumPlacementHint "\"bottomCenter\""
par StaticLTE.visualizer.mediumVisualizer spectrumPlacementPriority -1
par StaticLTE.visualizer.mediumVisualizer displaySpectrograms false
par StaticLTE.visualizer.mediumVisualizer spectrogramMode "\"auto\""
attr enum total,signal,auto
par StaticLTE.visualizer.mediumVisualizer spectrogramPixelMode "\"mean\""
attr enum sample,partition,mean
par StaticLTE.visualizer.mediumVisualizer spectrogramFigureWidth 200
par StaticLTE.visualizer.mediumVisualizer spectrogramFigureHeight 120
par StaticLTE.visualizer.mediumVisualizer spectrogramPixmapWidth 200
par StaticLTE.visualizer.mediumVisualizer spectrogramPixmapHeight 120
par StaticLTE.visualizer.mediumVisualizer spectrogramFigureXTickCount 3
par StaticLTE.visualizer.mediumVisualizer spectrogramFigureYTickCount 5
par StaticLTE.visualizer.mediumVisualizer spectrogramPlacementHint "\"bottomCenter\""
par StaticLTE.visualizer.mediumVisualizer spectrogramPlacementPriority -1
par StaticLTE.visualizer.mediumVisualizer zIndex 0
par StaticLTE.visualizer.mediumVisualizer signalShape "\"ring\""
attr enum ring,sphere
par StaticLTE.visualizer.mediumVisualizer signalOpacity 0.5
par StaticLTE.visualizer.mediumVisualizer signalRingCount 20
par StaticLTE.visualizer.mediumVisualizer signalRingSize 50m
attr unit m
par StaticLTE.visualizer.mediumVisualizer signalFadingDistance 50m
attr unit m
par StaticLTE.visualizer.mediumVisualizer signalFadingFactor 1.2
par StaticLTE.visualizer.mediumVisualizer signalWaveCount 20
par StaticLTE.visualizer.mediumVisualizer signalWaveLength 50m
attr unit m
par StaticLTE.visualizer.mediumVisualizer signalWaveWidth 10m
attr unit m
par StaticLTE.visualizer.mediumVisualizer signalWaveFadingAnimationSpeedFactor 1
par StaticLTE.visualizer.mediumVisualizer displayCommunicationHeat false
par StaticLTE.visualizer.obstacleLossVisualizer typename "\"inet.visualizer.canvas.physicallayer.TracingObstacleLossCanvasVisualizer\""
par StaticLTE.visualizer.obstacleLossVisualizer visualizationTargetModule "\"^.^\""
par StaticLTE.visualizer.obstacleLossVisualizer visualizationSubjectModule "\"^.^\""
par StaticLTE.visualizer.obstacleLossVisualizer tags "\"\""
par StaticLTE.visualizer.obstacleLossVisualizer displayIntersections false
par StaticLTE.visualizer.obstacleLossVisualizer intersectionLineColor "\"red\""
par StaticLTE.visualizer.obstacleLossVisualizer intersectionLineStyle "\"solid\""
par StaticLTE.visualizer.obstacleLossVisualizer intersectionLineWidth 1
par StaticLTE.visualizer.obstacleLossVisualizer displayFaceNormalVectors false
par StaticLTE.visualizer.obstacleLossVisualizer faceNormalLineColor "\"grey\""
par StaticLTE.visualizer.obstacleLossVisualizer faceNormalLineStyle "\"solid\""
par StaticLTE.visualizer.obstacleLossVisualizer faceNormalLineWidth 1
par StaticLTE.visualizer.obstacleLossVisualizer fadeOutMode "\"realTime\""
attr enum realTime,animationTime,simulationTime
par StaticLTE.visualizer.obstacleLossVisualizer fadeOutTime 1s
attr unit s
par StaticLTE.visualizer.obstacleLossVisualizer fadeOutAnimationSpeed 0
par StaticLTE.visualizer.obstacleLossVisualizer zIndex 0
par StaticLTE.visualizer.packetDropVisualizer typename "\"inet.visualizer.canvas.common.PacketDropCanvasVisualizer\""
par StaticLTE.visualizer.packetDropVisualizer visualizationTargetModule "\"^.^\""
par StaticLTE.visualizer.packetDropVisualizer visualizationSubjectModule "\"^.^\""
par StaticLTE.visualizer.packetDropVisualizer tags "\"\""
par StaticLTE.visualizer.packetDropVisualizer displayPacketDrops false
par StaticLTE.visualizer.packetDropVisualizer nodeFilter "\"*\""
attr mutable ""
par StaticLTE.visualizer.packetDropVisualizer interfaceFilter "\"*\""
attr mutable ""
par StaticLTE.visualizer.packetDropVisualizer packetFilter "(omnetpp::cValueHolder)holder: \"*\""
attr mutable ""
par StaticLTE.visualizer.packetDropVisualizer detailsFilter "\"*\""
attr mutable ""
par StaticLTE.visualizer.packetDropVisualizer icon "\"msg/packet_s\""
par StaticLTE.visualizer.packetDropVisualizer iconTintAmount 1
par StaticLTE.visualizer.packetDropVisualizer iconTintColor "\"dark\""
par StaticLTE.visualizer.packetDropVisualizer labelFormat "\"%n\""
attr mutable ""
par StaticLTE.visualizer.packetDropVisualizer labelFont "\"<default>\""
par StaticLTE.visualizer.packetDropVisualizer labelColor "\"black\""
par StaticLTE.visualizer.packetDropVisualizer fadeOutMode "\"realTime\""
attr enum realTime,animationTime,simulationTime
par StaticLTE.visualizer.packetDropVisualizer fadeOutTime 1s
attr unit s
par StaticLTE.visualizer.packetDropVisualizer fadeOutAnimationSpeed 0
par StaticLTE.visualizer.packetDropVisualizer zIndex 10
par StaticLTE.visualizer.packetDropVisualizer dx 32
par StaticLTE.visualizer.packetDropVisualizer dy 64
par StaticLTE.visualizer.packetFlowVisualizer typename "\"inet.visualizer.canvas.flow.PacketFlowCanvasVisualizer\""
par StaticLTE.visualizer.packetFlowVisualizer visualizationTargetModule "\"^.^\""
par StaticLTE.visualizer.packetFlowVisualizer visualizationSubjectModule "\"^.^\""
par StaticLTE.visualizer.packetFlowVisualizer tags "\"\""
par StaticLTE.visualizer.packetFlowVisualizer displayRoutes false
par StaticLTE.visualizer.packetFlowVisualizer startPathSignal "\"packetFlowStarted\""
par StaticLTE.visualizer.packetFlowVisualizer extendPathSignal "\"packetReceivedFromLower\""
par StaticLTE.visualizer.packetFlowVisualizer endPathSignal "\"packetFlowEnded\""
par StaticLTE.visualizer.packetFlowVisualizer nodeFilter "\"*\""
attr mutable ""
par StaticLTE.visualizer.packetFlowVisualizer packetFilter "(omnetpp::cValueHolder)holder: \"*\""
attr mutable ""
par StaticLTE.visualizer.packetFlowVisualizer lineColor "\"dark\""
par StaticLTE.visualizer.packetFlowVisualizer lineStyle "\"dashed\""
par StaticLTE.visualizer.packetFlowVisualizer lineWidth 3
par StaticLTE.visualizer.packetFlowVisualizer lineSmooth false
par StaticLTE.visualizer.packetFlowVisualizer lineShift 16
par StaticLTE.visualizer.packetFlowVisualizer lineShiftMode "\"normal\""
par StaticLTE.visualizer.packetFlowVisualizer lineContactSpacing 3
par StaticLTE.visualizer.packetFlowVisualizer lineContactMode "\"rectangular\""
attr enum circular,rectangular
par StaticLTE.visualizer.packetFlowVisualizer labelFormat "\"%L %p pk (%l)\""
par StaticLTE.visualizer.packetFlowVisualizer labelFont "\"<default>, 8px\""
par StaticLTE.visualizer.packetFlowVisualizer labelColor "\"\""
par StaticLTE.visualizer.packetFlowVisualizer fadeOutMode "\"realTime\""
attr enum realTime,animationTime,simulationTime
par StaticLTE.visualizer.packetFlowVisualizer fadeOutTime 0s
attr unit s
par StaticLTE.visualizer.packetFlowVisualizer fadeOutAnimationSpeed 0
par StaticLTE.visualizer.packetFlowVisualizer zIndex 4
par StaticLTE.visualizer.queueVisualizer typename "\"inet.visualizer.canvas.common.QueueCanvasVisualizer\""
par StaticLTE.visualizer.queueVisualizer visualizationTargetModule "\"^.^\""
par StaticLTE.visualizer.queueVisualizer visualizationSubjectModule "\"^.^\""
par StaticLTE.visualizer.queueVisualizer tags "\"\""
par StaticLTE.visualizer.queueVisualizer networkNodeVisualizerModule "\"^.networkNodeVisualizer\""
par StaticLTE.visualizer.queueVisualizer displayQueues false
par StaticLTE.visualizer.queueVisualizer queueFilter "\"**\""
par StaticLTE.visualizer.queueVisualizer color "\"blue\""
par StaticLTE.visualizer.queueVisualizer width 8
par StaticLTE.visualizer.queueVisualizer height 24
par StaticLTE.visualizer.queueVisualizer spacing 2
par StaticLTE.visualizer.queueVisualizer placementHint "\"right\""
par StaticLTE.visualizer.queueVisualizer placementPriority 0
par StaticLTE.visualizer.queueVisualizer zIndex 10
par StaticLTE.visualizer.gateScheduleVisualizer typename "\"inet.visualizer.canvas.common.GateScheduleCanvasVisualizer\""
par StaticLTE.visualizer.gateScheduleVisualizer visualizationTargetModule "\"^.^\""
par StaticLTE.visualizer.gateScheduleVisualizer visualizationSubjectModule "\"^.^\""
par StaticLTE.visualizer.gateScheduleVisualizer tags "\"\""
par StaticLTE.visualizer.gateScheduleVisualizer networkNodeVisualizerModule "\"^.networkNodeVisualizer\""
par StaticLTE.visualizer.gateScheduleVisualizer displayGateSchedules false
par StaticLTE.visualizer.gateScheduleVisualizer labelFormat "\"%i %D\""
par StaticLTE.visualizer.gateScheduleVisualizer gateFilter "\"**\""
par StaticLTE.visualizer.gateScheduleVisualizer width 100
par StaticLTE.visualizer.gateScheduleVisualizer height 8
par StaticLTE.visualizer.gateScheduleVisualizer spacing 2
par StaticLTE.visualizer.gateScheduleVisualizer placementHint "\"right\""
par StaticLTE.visualizer.gateScheduleVisualizer placementPriority 0
par StaticLTE.visualizer.gateScheduleVisualizer displayDuration 0s
attr mutable ""
attr unit s
par StaticLTE.visualizer.gateScheduleVisualizer currentTimePosition 50
par StaticLTE.visualizer.gateScheduleVisualizer zIndex 10
par StaticLTE.visualizer.radioVisualizer typename "\"inet.visualizer.canvas.physicallayer.RadioCanvasVisualizer\""
par StaticLTE.visualizer.radioVisualizer visualizationTargetModule "\"^.^\""
par StaticLTE.visualizer.radioVisualizer visualizationSubjectModule "\"^.^\""
par StaticLTE.visualizer.radioVisualizer tags "\"\""
par StaticLTE.visualizer.radioVisualizer networkNodeVisualizerModule "\"^.networkNodeVisualizer\""
par StaticLTE.visualizer.radioVisualizer displayRadios false
par StaticLTE.visualizer.radioVisualizer displayRadioMode true
par StaticLTE.visualizer.radioVisualizer displayReceptionState true
par StaticLTE.visualizer.radioVisualizer displayTransmissionState true
par StaticLTE.visualizer.radioVisualizer displayAntennaLobes false
par StaticLTE.visualizer.radioVisualizer radioFilter "\"**\""
attr mutable ""
par StaticLTE.visualizer.radioVisualizer radioModeImages "\"block/process_vs block/timer_vs block/wrx_vs block/wtx_vs block/wrxtx_vs block/cogwheel_vs\""
par StaticLTE.visualizer.radioVisualizer receptionStateImages "\"- - misc/receiving misc/receiving\""
par StaticLTE.visualizer.radioVisualizer transmissionStateImages "\"- - misc/transmitting\""
par StaticLTE.visualizer.radioVisualizer width 16
par StaticLTE.visualizer.radioVisualizer height 16
par StaticLTE.visualizer.radioVisualizer placementHint "\"bottomRight\""
par StaticLTE.visualizer.radioVisualizer placementPriority 0
par StaticLTE.visualizer.radioVisualizer antennaLobeNormalize false
par StaticLTE.visualizer.radioVisualizer antennaLobeRelativeLabels false
par StaticLTE.visualizer.radioVisualizer antennaLobePlaneGlobal true
par StaticLTE.visualizer.radioVisualizer antennaLobePlane "\"view\""
attr enum view,xy,xz,yz
par StaticLTE.visualizer.radioVisualizer antennaLobeMode "\"logarithmic\""
attr enum logarithmic,linear
par StaticLTE.visualizer.radioVisualizer antennaLobeLogarithmicBase 10
par StaticLTE.visualizer.radioVisualizer antennaLobeLogarithmicScale 100
par StaticLTE.visualizer.radioVisualizer antennaLobeRadius 100
par StaticLTE.visualizer.radioVisualizer antennaLobeStep 10deg
attr unit deg
par StaticLTE.visualizer.radioVisualizer antennaLobeOpacity 0.25
par StaticLTE.visualizer.radioVisualizer antennaLobeLineSmooth true
par StaticLTE.visualizer.radioVisualizer antennaLobeLineColor "\"black\""
par StaticLTE.visualizer.radioVisualizer antennaLobeLineStyle "\"solid\""
par StaticLTE.visualizer.radioVisualizer antennaLobeLineWidth 1
par StaticLTE.visualizer.radioVisualizer antennaLobeFillColor "\"white\""
par StaticLTE.visualizer.radioVisualizer zIndex 10
par StaticLTE.visualizer.physicalLinkVisualizer typename "\"inet.visualizer.canvas.physicallayer.PhysicalLinkCanvasVisualizer\""
par StaticLTE.visualizer.physicalLinkVisualizer visualizationTargetModule "\"^.^\""
par StaticLTE.visualizer.physicalLinkVisualizer visualizationSubjectModule "\"^.^\""
par StaticLTE.visualizer.physicalLinkVisualizer tags "\"\""
par StaticLTE.visualizer.physicalLinkVisualizer displayLinks false
par StaticLTE.visualizer.physicalLinkVisualizer activityLevel "\"service\""
attr enum service,peer,protocol
par StaticLTE.visualizer.physicalLinkVisualizer nodeFilter "\"*\""
attr mutable ""
par StaticLTE.visualizer.physicalLinkVisualizer interfaceFilter "\"*\""
attr mutable ""
par StaticLTE.visualizer.physicalLinkVisualizer packetFilter "(omnetpp::cValueHolder)holder: \"*\""
attr mutable ""
par StaticLTE.visualizer.physicalLinkVisualizer lineColor "\"olive\""
par StaticLTE.visualizer.physicalLinkVisualizer lineStyle "\"dotted\""
par StaticLTE.visualizer.physicalLinkVisualizer lineWidth 3
par StaticLTE.visualizer.physicalLinkVisualizer lineShift 16
par StaticLTE.visualizer.physicalLinkVisualizer lineShiftMode "\"normal\""
par StaticLTE.visualizer.physicalLinkVisualizer lineContactSpacing 3
par StaticLTE.visualizer.physicalLinkVisualizer lineContactMode "\"rectangular\""
attr enum circular,rectangular
par StaticLTE.visualizer.physicalLinkVisualizer labelFormat "\"%n\""
par StaticLTE.visualizer.physicalLinkVisualizer labelFont "\"<default>, 8px\""
par StaticLTE.visualizer.physicalLinkVisualizer labelColor "\"olive\""
par StaticLTE.visualizer.physicalLinkVisualizer fadeOutMode "\"realTime\""
attr enum realTime,animationTime,simulationTime
par StaticLTE.visualizer.physicalLinkVisualizer fadeOutTime 1s
attr unit s
par StaticLTE.visualizer.physicalLinkVisualizer fadeOutAnimationSpeed 0
par StaticLTE.visualizer.physicalLinkVisualizer holdAnimationTime 0s
attr unit s
par StaticLTE.visualizer.physicalLinkVisualizer zIndex 1
par StaticLTE.visualizer.interfaceTableVisualizer typename "\"inet.visualizer.canvas.linklayer.InterfaceTableCanvasVisualizer\""
par StaticLTE.visualizer.interfaceTableVisualizer visualizationTargetModule "\"^.^\""
par StaticLTE.visualizer.interfaceTableVisualizer visualizationSubjectModule "\"^.^\""
par StaticLTE.visualizer.interfaceTableVisualizer tags "\"\""
par StaticLTE.visualizer.interfaceTableVisualizer networkNodeVisualizerModule "\"^.networkNodeVisualizer\""
par StaticLTE.visualizer.interfaceTableVisualizer displayInterfaceTables false
par StaticLTE.visualizer.interfaceTableVisualizer displayWiredInterfacesAtConnections true
par StaticLTE.visualizer.interfaceTableVisualizer displayBackground false
par StaticLTE.visualizer.interfaceTableVisualizer nodeFilter "\"*\""
attr mutable ""
par StaticLTE.visualizer.interfaceTableVisualizer interfaceFilter "\"not(lo*)\""
attr mutable ""
par StaticLTE.visualizer.interfaceTableVisualizer format "\"%N %\\\\%a%/%l\""
attr mutable ""
par StaticLTE.visualizer.interfaceTableVisualizer placementHint "\"top\""
par StaticLTE.visualizer.interfaceTableVisualizer placementPriority 0
par StaticLTE.visualizer.interfaceTableVisualizer font "\"<default>\""
par StaticLTE.visualizer.interfaceTableVisualizer textColor "\"#005030\""
par StaticLTE.visualizer.interfaceTableVisualizer backgroundColor "\"white\""
par StaticLTE.visualizer.interfaceTableVisualizer opacity 1
par StaticLTE.visualizer.interfaceTableVisualizer zIndex 10
par StaticLTE.visualizer.dataLinkVisualizer typename "\"inet.visualizer.canvas.linklayer.DataLinkCanvasVisualizer\""
par StaticLTE.visualizer.dataLinkVisualizer visualizationTargetModule "\"^.^\""
par StaticLTE.visualizer.dataLinkVisualizer visualizationSubjectModule "\"^.^\""
par StaticLTE.visualizer.dataLinkVisualizer tags "\"\""
par StaticLTE.visualizer.dataLinkVisualizer displayLinks false
par StaticLTE.visualizer.dataLinkVisualizer activityLevel "\"service\""
attr enum service,peer,protocol
par StaticLTE.visualizer.dataLinkVisualizer nodeFilter "\"*\""
attr mutable ""
par StaticLTE.visualizer.dataLinkVisualizer interfaceFilter "\"*\""
attr mutable ""
par StaticLTE.visualizer.dataLinkVisualizer packetFilter "(omnetpp::cValueHolder)holder: \"*\""
attr mutable ""
par StaticLTE.visualizer.dataLinkVisualizer lineColor "\"darkcyan\""
par StaticLTE.visualizer.dataLinkVisualizer lineStyle "\"solid\""
par StaticLTE.visualizer.dataLinkVisualizer lineWidth 3
par StaticLTE.visualizer.dataLinkVisualizer lineShift 16
par StaticLTE.visualizer.dataLinkVisualizer lineShiftMode "\"normal\""
par StaticLTE.visualizer.dataLinkVisualizer lineContactSpacing 3
par StaticLTE.visualizer.dataLinkVisualizer lineContactMode "\"rectangular\""
attr enum circular,rectangular
par StaticLTE.visualizer.dataLinkVisualizer labelFormat "\"%n\""
par StaticLTE.visualizer.dataLinkVisualizer labelFont "\"<default>, 8px\""
par StaticLTE.visualizer.dataLinkVisualizer labelColor "\"darkcyan\""
par StaticLTE.visualizer.dataLinkVisualizer fadeOutMode "\"realTime\""
attr enum realTime,animationTime,simulationTime
par StaticLTE.visualizer.dataLinkVisualizer fadeOutTime 1s
attr unit s
par StaticLTE.visualizer.dataLinkVisualizer fadeOutAnimationSpeed 0
par StaticLTE.visualizer.dataLinkVisualizer holdAnimationTime 0s
attr unit s
par StaticLTE.visualizer.dataLinkVisualizer zIndex 2
par StaticLTE.visualizer.linkBreakVisualizer typename "\"inet.visualizer.canvas.linklayer.LinkBreakCanvasVisualizer\""
par StaticLTE.visualizer.linkBreakVisualizer visualizationTargetModule "\"^.^\""
par StaticLTE.visualizer.linkBreakVisualizer visualizationSubjectModule "\"^.^\""
par StaticLTE.visualizer.linkBreakVisualizer tags "\"\""
par StaticLTE.visualizer.linkBreakVisualizer displayLinkBreaks false
par StaticLTE.visualizer.linkBreakVisualizer nodeFilter "\"*\""
attr mutable ""
par StaticLTE.visualizer.linkBreakVisualizer interfaceFilter "\"*\""
attr mutable ""
par StaticLTE.visualizer.linkBreakVisualizer packetFilter "(omnetpp::cValueHolder)holder: \"*\""
attr mutable ""
par StaticLTE.visualizer.linkBreakVisualizer icon "\"status/stop\""
par StaticLTE.visualizer.linkBreakVisualizer iconTintAmount 0
par StaticLTE.visualizer.linkBreakVisualizer iconTintColor "\"\""
par StaticLTE.visualizer.linkBreakVisualizer fadeOutMode "\"realTime\""
attr enum realTime,animationTime,simulationTime
par StaticLTE.visualizer.linkBreakVisualizer fadeOutTime 1s
attr unit s
par StaticLTE.visualizer.linkBreakVisualizer fadeOutAnimationSpeed 0
par StaticLTE.visualizer.linkBreakVisualizer zIndex 2
par StaticLTE.visualizer.ieee80211Visualizer typename "\"inet.visualizer.canvas.linklayer.Ieee80211CanvasVisualizer\""
par StaticLTE.visualizer.ieee80211Visualizer visualizationTargetModule "\"^.^\""
par StaticLTE.visualizer.ieee80211Visualizer visualizationSubjectModule "\"^.^\""
par StaticLTE.visualizer.ieee80211Visualizer tags "\"\""
par StaticLTE.visualizer.ieee80211Visualizer networkNodeVisualizerModule "\"^.networkNodeVisualizer\""
par StaticLTE.visualizer.ieee80211Visualizer displayAssociations false
par StaticLTE.visualizer.ieee80211Visualizer nodeFilter "\"*\""
attr mutable ""
par StaticLTE.visualizer.ieee80211Visualizer interfaceFilter "\"*\""
attr mutable ""
par StaticLTE.visualizer.ieee80211Visualizer minPower -85dBm
attr unit dBm
par StaticLTE.visualizer.ieee80211Visualizer maxPower -50dBm
attr unit dBm
par StaticLTE.visualizer.ieee80211Visualizer icons "\"misc/signal_power_0 misc/signal_power_1 misc/signal_power_2 misc/signal_power_3\""
par StaticLTE.visualizer.ieee80211Visualizer iconColor "\"dark\""
par StaticLTE.visualizer.ieee80211Visualizer labelFont "\"<default>\""
par StaticLTE.visualizer.ieee80211Visualizer labelColor "\"black\""
par StaticLTE.visualizer.ieee80211Visualizer placementHint "\"top\""
par StaticLTE.visualizer.ieee80211Visualizer placementPriority 0
par StaticLTE.visualizer.ieee80211Visualizer zIndex 2
par StaticLTE.visualizer.networkRouteVisualizer typename "\"inet.visualizer.canvas.networklayer.NetworkRouteCanvasVisualizer\""
par StaticLTE.visualizer.networkRouteVisualizer visualizationTargetModule "\"^.^\""
par StaticLTE.visualizer.networkRouteVisualizer visualizationSubjectModule "\"^.^\""
par StaticLTE.visualizer.networkRouteVisualizer tags "\"\""
par StaticLTE.visualizer.networkRouteVisualizer displayRoutes false
par StaticLTE.visualizer.networkRouteVisualizer startPathSignal "\"packetReceivedFromUpper\""
par StaticLTE.visualizer.networkRouteVisualizer extendPathSignal "\"packetReceivedFromLower\""
par StaticLTE.visualizer.networkRouteVisualizer endPathSignal "\"packetSentToUpper\""
par StaticLTE.visualizer.networkRouteVisualizer nodeFilter "\"*\""
attr mutable ""
par StaticLTE.visualizer.networkRouteVisualizer packetFilter "(omnetpp::cValueHolder)holder: \"*\""
attr mutable ""
par StaticLTE.visualizer.networkRouteVisualizer lineColor "\"dark\""
par StaticLTE.visualizer.networkRouteVisualizer lineStyle "\"solid\""
par StaticLTE.visualizer.networkRouteVisualizer lineWidth 3
par StaticLTE.visualizer.networkRouteVisualizer lineSmooth false
par StaticLTE.visualizer.networkRouteVisualizer lineShift 16
par StaticLTE.visualizer.networkRouteVisualizer lineShiftMode "\"normal\""
par StaticLTE.visualizer.networkRouteVisualizer lineContactSpacing 3
par StaticLTE.visualizer.networkRouteVisualizer lineContactMode "\"rectangular\""
attr enum circular,rectangular
par StaticLTE.visualizer.networkRouteVisualizer labelFormat "\"%n\""
par StaticLTE.visualizer.networkRouteVisualizer labelFont "\"<default>, 8px\""
par StaticLTE.visualizer.networkRouteVisualizer labelColor "\"\""
par StaticLTE.visualizer.networkRouteVisualizer fadeOutMode "\"realTime\""
attr enum realTime,animationTime,simulationTime
par StaticLTE.visualizer.networkRouteVisualizer fadeOutTime 1s
attr unit s
par StaticLTE.visualizer.networkRouteVisualizer fadeOutAnimationSpeed 0
par StaticLTE.visualizer.networkRouteVisualizer zIndex 3
par StaticLTE.visualizer.routingTableVisualizer typename "\"inet.visualizer.canvas.networklayer.RoutingTableCanvasVisualizer\""
par StaticLTE.visualizer.routingTableVisualizer visualizationTargetModule "\"^.^\""
par StaticLTE.visualizer.routingTableVisualizer visualizationSubjectModule "\"^.^\""
par StaticLTE.visualizer.routingTableVisualizer tags "\"\""
par StaticLTE.visualizer.routingTableVisualizer displayRoutingTables false
par StaticLTE.visualizer.routingTableVisualizer displayRoutesIndividually true
par StaticLTE.visualizer.routingTableVisualizer displayLabels true
par StaticLTE.visualizer.routingTableVisualizer destinationFilter "\"*\""
attr mutable ""
par StaticLTE.visualizer.routingTableVisualizer nodeFilter "\"*\""
attr mutable ""
par StaticLTE.visualizer.routingTableVisualizer lineColor "\"black\""
par StaticLTE.visualizer.routingTableVisualizer lineStyle "\"solid\""
par StaticLTE.visualizer.routingTableVisualizer lineWidth 2
par StaticLTE.visualizer.routingTableVisualizer lineShift 16
par StaticLTE.visualizer.routingTableVisualizer lineShiftMode "\"normal\""
par StaticLTE.visualizer.routingTableVisualizer lineContactSpacing 3
par StaticLTE.visualizer.routingTableVisualizer lineContactMode "\"rectangular\""
attr enum circular,rectangular
par StaticLTE.visualizer.routingTableVisualizer labelFormat "\"%d/%m -> %g (%n)\""
attr mutable ""
par StaticLTE.visualizer.routingTableVisualizer labelFont "\"<default>, 8px\""
par StaticLTE.visualizer.routingTableVisualizer labelColor "\"black\""
par StaticLTE.visualizer.routingTableVisualizer zIndex 0
par StaticLTE.visualizer.transportRouteVisualizer typename "\"inet.visualizer.canvas.transportlayer.TransportRouteCanvasVisualizer\""
par StaticLTE.visualizer.transportRouteVisualizer visualizationTargetModule "\"^.^\""
par StaticLTE.visualizer.transportRouteVisualizer visualizationSubjectModule "\"^.^\""
par StaticLTE.visualizer.transportRouteVisualizer tags "\"\""
par StaticLTE.visualizer.transportRouteVisualizer displayRoutes false
par StaticLTE.visualizer.transportRouteVisualizer startPathSignal "\"packetReceivedFromUpper\""
par StaticLTE.visualizer.transportRouteVisualizer extendPathSignal "\"packetReceivedFromLower\""
par StaticLTE.visualizer.transportRouteVisualizer endPathSignal "\"packetSentToUpper\""
par StaticLTE.visualizer.transportRouteVisualizer nodeFilter "\"*\""
attr mutable ""
par StaticLTE.visualizer.transportRouteVisualizer packetFilter "(omnetpp::cValueHolder)holder: \"*\""
attr mutable ""
par StaticLTE.visualizer.transportRouteVisualizer lineColor "\"dark\""
par StaticLTE.visualizer.transportRouteVisualizer lineStyle "\"solid\""
par StaticLTE.visualizer.transportRouteVisualizer lineWidth 3
par StaticLTE.visualizer.transportRouteVisualizer lineSmooth false
par StaticLTE.visualizer.transportRouteVisualizer lineShift 16
par StaticLTE.visualizer.transportRouteVisualizer lineShiftMode "\"normal\""
par StaticLTE.visualizer.transportRouteVisualizer lineContactSpacing 3
par StaticLTE.visualizer.transportRouteVisualizer lineContactMode "\"rectangular\""
attr enum circular,rectangular
par StaticLTE.visualizer.transportRouteVisualizer labelFormat "\"%n\""
par StaticLTE.visualizer.transportRouteVisualizer labelFont "\"<default>, 8px\""
par StaticLTE.visualizer.transportRouteVisualizer labelColor "\"\""
par StaticLTE.visualizer.transportRouteVisualizer fadeOutMode "\"realTime\""
attr enum realTime,animationTime,simulationTime
par StaticLTE.visualizer.transportRouteVisualizer fadeOutTime 1s
attr unit s
par StaticLTE.visualizer.transportRouteVisualizer fadeOutAnimationSpeed 0
par StaticLTE.visualizer.transportRouteVisualizer zIndex 4
par StaticLTE.visualizer.transportConnectionVisualizer typename "\"inet.visualizer.canvas.transportlayer.TransportConnectionCanvasVisualizer\""
par StaticLTE.visualizer.transportConnectionVisualizer visualizationTargetModule "\"^.^\""
par StaticLTE.visualizer.transportConnectionVisualizer visualizationSubjectModule "\"^.^\""
par StaticLTE.visualizer.transportConnectionVisualizer tags "\"\""
par StaticLTE.visualizer.transportConnectionVisualizer networkNodeVisualizerModule "\"^.networkNodeVisualizer\""
par StaticLTE.visualizer.transportConnectionVisualizer displayTransportConnections false
par StaticLTE.visualizer.transportConnectionVisualizer sourceNodeFilter "\"*\""
attr mutable ""
par StaticLTE.visualizer.transportConnectionVisualizer sourcePortFilter "\"*\""
attr mutable ""
par StaticLTE.visualizer.transportConnectionVisualizer destinationNodeFilter "\"*\""
attr mutable ""
par StaticLTE.visualizer.transportConnectionVisualizer destinationPortFilter "\"*\""
attr mutable ""
par StaticLTE.visualizer.transportConnectionVisualizer icon "\"misc/marker_s\""
par StaticLTE.visualizer.transportConnectionVisualizer iconColor "\"dark\""
par StaticLTE.visualizer.transportConnectionVisualizer labelFont "\"<default>\""
par StaticLTE.visualizer.transportConnectionVisualizer labelColor "\"black\""
par StaticLTE.visualizer.transportConnectionVisualizer placementHint "\"top\""
par StaticLTE.visualizer.transportConnectionVisualizer placementPriority 0
par StaticLTE.visualizer.transportConnectionVisualizer zIndex 4
par StaticLTE.visualizer.failureProtectionConfigurationVisualizer typename "\"inet.visualizer.canvas.configurator.FailureProtectionConfigurationCanvasVisualizer\""
par StaticLTE.visualizer.failureProtectionConfigurationVisualizer visualizationTargetModule "\"^.^\""
par StaticLTE.visualizer.failureProtectionConfigurationVisualizer visualizationSubjectModule "\"^.^\""
par StaticLTE.visualizer.failureProtectionConfigurationVisualizer tags "\"\""
par StaticLTE.visualizer.failureProtectionConfigurationVisualizer displayTrees false
par StaticLTE.visualizer.failureProtectionConfigurationVisualizer lineColor "\"dark\""
par StaticLTE.visualizer.failureProtectionConfigurationVisualizer lineStyle "\"solid\""
par StaticLTE.visualizer.failureProtectionConfigurationVisualizer lineWidth 3
par StaticLTE.visualizer.failureProtectionConfigurationVisualizer lineSmooth false
par StaticLTE.visualizer.failureProtectionConfigurationVisualizer lineShift 16
par StaticLTE.visualizer.failureProtectionConfigurationVisualizer lineShiftMode "\"normal\""
par StaticLTE.visualizer.failureProtectionConfigurationVisualizer lineContactSpacing 3
par StaticLTE.visualizer.failureProtectionConfigurationVisualizer lineContactMode "\"rectangular\""
attr enum circular,rectangular
par StaticLTE.visualizer.failureProtectionConfigurationVisualizer failureProtectionConfiguratorModule "\"failureProtectionConfigurator\""
par StaticLTE.visualizer.failureProtectionConfigurationVisualizer streamFilter "\"*\""
par StaticLTE.visualizer.failureProtectionConfigurationVisualizer zIndex 3
par StaticLTE.visualizer.streamRedundancyConfigurationVisualizer typename "\"inet.visualizer.canvas.configurator.StreamRedundancyConfigurationCanvasVisualizer\""
par StaticLTE.visualizer.streamRedundancyConfigurationVisualizer visualizationTargetModule "\"^.^\""
par StaticLTE.visualizer.streamRedundancyConfigurationVisualizer visualizationSubjectModule "\"^.^\""
par StaticLTE.visualizer.streamRedundancyConfigurationVisualizer tags "\"\""
par StaticLTE.visualizer.streamRedundancyConfigurationVisualizer displayTrees false
par StaticLTE.visualizer.streamRedundancyConfigurationVisualizer lineColor "\"dark\""
par StaticLTE.visualizer.streamRedundancyConfigurationVisualizer lineStyle "\"solid\""
par StaticLTE.visualizer.streamRedundancyConfigurationVisualizer lineWidth 3
par StaticLTE.visualizer.streamRedundancyConfigurationVisualizer lineSmooth false
par StaticLTE.visualizer.streamRedundancyConfigurationVisualizer lineShift 16
par StaticLTE.visualizer.streamRedundancyConfigurationVisualizer lineShiftMode "\"normal\""
par StaticLTE.visualizer.streamRedundancyConfigurationVisualizer lineContactSpacing 3
par StaticLTE.visualizer.streamRedundancyConfigurationVisualizer lineContactMode "\"rectangular\""
attr enum circular,rectangular
par StaticLTE.visualizer.streamRedundancyConfigurationVisualizer streamRedundancyConfiguratorModule "\"streamRedundancyConfigurator\""
par StaticLTE.visualizer.streamRedundancyConfigurationVisualizer streamFilter "\"*\""
par StaticLTE.visualizer.streamRedundancyConfigurationVisualizer zIndex 3
par StaticLTE.visualizer typename "\"inet.visualizer.canvas.integrated.IntegratedCanvasVisualizer\""
par StaticLTE.radioMedium.propagation typename "\"inet.physicallayer.wireless.common.propagation.ConstantSpeedPropagation\""
par StaticLTE.radioMedium.propagation propagationSpeed 2.99792e+08mps
attr unit mps
par StaticLTE.radioMedium.propagation ignoreMovementDuringTransmission true
par StaticLTE.radioMedium.propagation ignoreMovementDuringPropagation true
par StaticLTE.radioMedium.propagation ignoreMovementDuringReception true
scalar StaticLTE.radioMedium.propagation "Arrival computation count" 0
par StaticLTE.radioMedium.analogModel typename "\"inet.physicallayer.wireless.common.analogmodel.packetlevel.ScalarAnalogModel\""
par StaticLTE.radioMedium.analogModel ignorePartialInterference false
par StaticLTE.radioMedium.backgroundNoise typename "\"inet.physicallayer.wireless.common.backgroundnoise.IsotropicScalarBackgroundNoise\""
par StaticLTE.radioMedium.backgroundNoise power -110dBm
attr unit dBm
par StaticLTE.radioMedium.backgroundNoise bandwidth "nan Hz"
attr unit Hz
par StaticLTE.radioMedium.pathLoss typename "\"inet.physicallayer.wireless.common.pathloss.FreeSpacePathLoss\""
par StaticLTE.radioMedium.pathLoss alpha 2
par StaticLTE.radioMedium.pathLoss systemLoss 0dB
attr unit dB
par StaticLTE.radioMedium.mediumLimitCache typename "\"inet.physicallayer.wireless.common.medium.MediumLimitCache\""
par StaticLTE.radioMedium.mediumLimitCache centerFrequency 2.4e+09Hz
attr unit Hz
par StaticLTE.radioMedium.mediumLimitCache maxSpeed "nan mps"
attr unit mps
par StaticLTE.radioMedium.mediumLimitCache maxTransmissionPower "nan W"
attr unit W
par StaticLTE.radioMedium.mediumLimitCache minInterferencePower -110dBm
attr unit dBm
par StaticLTE.radioMedium.mediumLimitCache minReceptionPower -85dBm
attr unit dBm
par StaticLTE.radioMedium.mediumLimitCache maxAntennaGain 0dB
attr unit dB
par StaticLTE.radioMedium.mediumLimitCache minInterferenceTime 1e-12s
attr unit s
par StaticLTE.radioMedium.mediumLimitCache maxTransmissionDuration 0.01s
attr unit s
par StaticLTE.radioMedium.mediumLimitCache maxCommunicationRange "nan m"
attr unit m
par StaticLTE.radioMedium.mediumLimitCache maxInterferenceRange "nan m"
attr unit m
par StaticLTE.radioMedium.communicationCache typename "\"inet.physicallayer.wireless.common.communicationcache.VectorCommunicationCache\""
par StaticLTE.radioMedium typename "\"inet.physicallayer.wireless.ieee80211.packetlevel.Ieee80211ScalarRadioMedium\""
par StaticLTE.radioMedium physicalEnvironmentModule "\"physicalEnvironment\""
par StaticLTE.radioMedium signalAnalogRepresentation "\"scalar\""
attr enum unitDisk,scalar,dimensional
par StaticLTE.radioMedium rangeFilter "\"\""
par StaticLTE.radioMedium radioModeFilter false
par StaticLTE.radioMedium listeningFilter false
par StaticLTE.radioMedium macAddressFilter false
par StaticLTE.radioMedium recordTransmissionLog false
par StaticLTE.radioMedium recordReceptionLog false
scalar StaticLTE.radioMedium "transmission count" 0
scalar StaticLTE.radioMedium "signal send count" 0
scalar StaticLTE.radioMedium "reception computation count" 0
scalar StaticLTE.radioMedium "interference computation count" 0
scalar StaticLTE.radioMedium "reception decision computation count" 0
scalar StaticLTE.radioMedium "listening decision computation count" 0
scalar StaticLTE.radioMedium "reception cache hit" nan
attr unit %
scalar StaticLTE.radioMedium "interference cache hit" nan
attr unit %
scalar StaticLTE.radioMedium "noise cache hit" nan
attr unit %
scalar StaticLTE.radioMedium "snir cache hit" nan
attr unit %
scalar StaticLTE.radioMedium "reception decision cache hit" nan
attr unit %
scalar StaticLTE.radioMedium "reception result cache hit" nan
attr unit %
par StaticLTE.routingRecorder typename "\"inet.networklayer.ipv4.RoutingTableRecorder\""
par StaticLTE.routingRecorder enabled true
par StaticLTE.configurator typename "\"inet.networklayer.configurator.ipv4.Ipv4NetworkConfigurator\""
par StaticLTE.configurator minLinkWeight 0.001
par StaticLTE.configurator configureIsolatedNetworksSeparatly false
par StaticLTE.configurator config "<config>...</config> at C:/Users/User/Downloads/omnetpp-6.0.3/samples/abcd/simulations/\\./demo.xml:1"
par StaticLTE.configurator assignAddresses true
par StaticLTE.configurator assignUniqueAddresses true
par StaticLTE.configurator assignDisjunctSubnetAddresses true
par StaticLTE.configurator addStaticRoutes true
par StaticLTE.configurator addDefaultRoutes true
par StaticLTE.configurator addSubnetRoutes true
par StaticLTE.configurator addDirectRoutes true
par StaticLTE.configurator optimizeRoutes true
par StaticLTE.configurator dumpTopology false
par StaticLTE.configurator dumpLinks false
par StaticLTE.configurator dumpAddresses false
par StaticLTE.configurator dumpRoutes false
par StaticLTE.configurator dumpConfig "\"\""
par StaticLTE.binder typename "\"simu5g.common.binder.Binder\""
par StaticLTE.binder blerShift 0
par StaticLTE.binder maxDataRatePerRb 1.16Mbps
attr unit Mbps
par StaticLTE.binder printTrafficGeneratorConfig false
par StaticLTE.carrierAggregation.componentCarrier[0] typename "\"simu5g.common.carrierAggregation.ComponentCarrier\""
par StaticLTE.carrierAggregation.componentCarrier[0] carrierFrequency 2GHz
attr unit GHz
par StaticLTE.carrierAggregation.componentCarrier[0] numBands 6
par StaticLTE.carrierAggregation.componentCarrier[0] numerologyIndex 0
par StaticLTE.carrierAggregation.componentCarrier[0] useTdd false
par StaticLTE.carrierAggregation.componentCarrier[0] tddNumSymbolsDl 7
par StaticLTE.carrierAggregation.componentCarrier[0] tddNumSymbolsUl 7
par StaticLTE.carrierAggregation.componentCarrier[1] typename "\"simu5g.common.carrierAggregation.ComponentCarrier\""
par StaticLTE.carrierAggregation.componentCarrier[1] carrierFrequency 2GHz
attr unit GHz
par StaticLTE.carrierAggregation.componentCarrier[1] numBands 6
par StaticLTE.carrierAggregation.componentCarrier[1] numerologyIndex 0
par StaticLTE.carrierAggregation.componentCarrier[1] useTdd false
par StaticLTE.carrierAggregation.componentCarrier[1] tddNumSymbolsDl 7
par StaticLTE.carrierAggregation.componentCarrier[1] tddNumSymbolsUl 7
par StaticLTE.carrierAggregation typename "\"simu5g.common.carrierAggregation.CarrierAggregation\""
par StaticLTE.carrierAggregation numComponentCarriers 2
par StaticLTE.server.pppg$i[0].channel typename "\"ned.IdealChannel\""
par StaticLTE.server.ppp[0].phys$o.channel typename "\"ned.IdealChannel\""
par StaticLTE.server.interfaceTable typename "\"inet.networklayer.common.InterfaceTable\""
par StaticLTE.server.interfaceTable displayAddresses false
par StaticLTE.server.cb typename "\"inet.common.MessageDispatcher\""
par StaticLTE.server.cb displayStringTextFormat "\"processed %p pk (%l)\""
par StaticLTE.server.cb forwardServiceRegistration true
par StaticLTE.server.cb forwardProtocolRegistration true
par StaticLTE.server.bl typename "\"inet.common.MessageDispatcher\""
par StaticLTE.server.bl displayStringTextFormat "\"processed %p pk (%l)\""
par StaticLTE.server.bl forwardServiceRegistration true
par StaticLTE.server.bl forwardProtocolRegistration true
par StaticLTE.server.li typename "\"inet.common.MessageDispatcher\""
par StaticLTE.server.li displayStringTextFormat "\"processed %p pk (%l)\""
par StaticLTE.server.li forwardServiceRegistration true
par StaticLTE.server.li forwardProtocolRegistration true
par StaticLTE.server.lo[0].upperLayerIn.channel typename "\"ned.IdealChannel\""
par StaticLTE.server.lo[0].lo.upperLayerOut.channel typename "\"ned.IdealChannel\""
par StaticLTE.server.lo[0].lo typename "\"inet.linklayer.loopback.Loopback\""
par StaticLTE.server.lo[0].lo interfaceTableModule "\"StaticLTE.server.interfaceTable\""
par StaticLTE.server.lo[0].lo mtu 4470B
attr unit B
scalar StaticLTE.server.lo[0].lo rcvdPkFromHl:count 0
attr interpolationmode none
attr recordingmode count
attr source packetReceivedFromUpper
attr title "packets received from higher layer, count"
scalar StaticLTE.server.lo[0].lo rcvdPkFromHl:sum(packetBytes) 0
attr interpolationmode none
attr recordingmode sum(packetBytes)
attr source packetReceivedFromUpper
attr title "packets received from higher layer, sum(packetBytes)"
scalar StaticLTE.server.lo[0].lo passedUpPk:count 0
attr interpolationmode none
attr recordingmode count
attr source packetSentToUpper
attr title "packets passed to higher layer, count"
scalar StaticLTE.server.lo[0].lo passedUpPk:sum(packetBytes) 0
attr interpolationmode none
attr recordingmode sum(packetBytes)
attr source packetSentToUpper
attr title "packets passed to higher layer, sum(packetBytes)"
par StaticLTE.server.lo[0] typename "\"inet.linklayer.loopback.LoopbackInterface\""
par StaticLTE.server.lo[0] displayStringTextFormat "\"%a (%i)\\n%m\""
par StaticLTE.server.lo[0] recordPcap false
par StaticLTE.server.lo[0] numPcapRecorders 0
par StaticLTE.server.lo[0] interfaceTableModule "\"StaticLTE.server.interfaceTable\""
scalar StaticLTE.server.lo[0] packetDropInterfaceDown:count 0
attr interpolationmode none
attr recordingmode count
attr source packetDropReasonIsInterfaceDown(packetDropped)
attr title "packet drops: interface down, count"
scalar StaticLTE.server.lo[0] packetDropInterfaceDown:sum(packetBytes) 0
attr interpolationmode none
attr recordingmode sum(packetBytes)
attr source packetDropReasonIsInterfaceDown(packetDropped)
attr title "packet drops: interface down, sum(packetBytes)"
scalar StaticLTE.server.lo[0] packetDropNoCarrier:count 0
attr interpolationmode none
attr recordingmode count
attr source packetDropReasonIsNoCarrier(packetDropped)
attr title "packet drops: no carrier, count"
scalar StaticLTE.server.lo[0] packetDropNoCarrier:sum(packetBytes) 0
attr interpolationmode none
attr recordingmode sum(packetBytes)
attr source packetDropReasonIsNoCarrier(packetDropped)
attr title "packet drops: no carrier, sum(packetBytes)"
par StaticLTE.server.ppp[0].phys$i.channel typename "\"ned.IdealChannel\""
par StaticLTE.server.ppp[0].ppp.phys$o.channel typename "\"ned.IdealChannel\""
par StaticLTE.server.ppp[0].ppp.upperLayerOut.channel typename "\"ned.IdealChannel\""
par StaticLTE.server.ppp[0].upperLayerIn.channel typename "\"ned.IdealChannel\""
par StaticLTE.server.ppp[0].queue typename "\"inet.queueing.queue.DropTailQueue\""
par StaticLTE.server.ppp[0].queue displayStringTextFormat "\"contains %p pk (%l) pushed %u\\npulled %o removed %r dropped %d\""
par StaticLTE.server.ppp[0].queue packetCapacity 10000
par StaticLTE.server.ppp[0].queue dataCapacity -1b
attr unit b
par StaticLTE.server.ppp[0].queue dropperClass "\"inet::queueing::PacketAtCollectionEndDropper\""
par StaticLTE.server.ppp[0].queue comparatorClass "\"\""
par StaticLTE.server.ppp[0].queue bufferModule "\"\""
scalar StaticLTE.server.ppp[0].queue queueLength:last 0
attr autoWarmupFilter false
attr interpolationmode sample-hold
attr recordingmode last
attr source "warmup(atomic(constant0(packetPushEnded) + count(packetPushStarted) - count(packetPulled) - count(packetRemoved) - count(packetDropped)))"
attr title "queue length, last"
attr unit pk
scalar StaticLTE.server.ppp[0].queue queueLength:max 0
attr autoWarmupFilter false
attr interpolationmode sample-hold
attr recordingmode max
attr source "warmup(atomic(constant0(packetPushEnded) + count(packetPushStarted) - count(packetPulled) - count(packetRemoved) - count(packetDropped)))"
attr title "queue length, max"
attr unit pk
scalar StaticLTE.server.ppp[0].queue queueLength:timeavg 0
attr autoWarmupFilter false
attr interpolationmode sample-hold
attr recordingmode timeavg
attr source "warmup(atomic(constant0(packetPushEnded) + count(packetPushStarted) - count(packetPulled) - count(packetRemoved) - count(packetDropped)))"
attr title "queue length, timeavg"
attr unit pk
scalar StaticLTE.server.ppp[0].queue queueBitLength:last 0
attr autoWarmupFilter false
attr interpolationmode sample-hold
attr recordingmode last
attr source "warmup(atomic(constant0(packetPushEnded) + sum(packetLength(packetPushStarted)) - sum(packetLength(packetPulled)) - sum(packetLength(packetRemoved)) - sum(packetLength(packetDropped))))"
attr title "queue bit length, last"
attr unit b
scalar StaticLTE.server.ppp[0].queue queueBitLength:max 0
attr autoWarmupFilter false
attr interpolationmode sample-hold
attr recordingmode max
attr source "warmup(atomic(constant0(packetPushEnded) + sum(packetLength(packetPushStarted)) - sum(packetLength(packetPulled)) - sum(packetLength(packetRemoved)) - sum(packetLength(packetDropped))))"
attr title "queue bit length, max"
attr unit b
scalar StaticLTE.server.ppp[0].queue queueBitLength:timeavg 0
attr autoWarmupFilter false
attr interpolationmode sample-hold
attr recordingmode timeavg
attr source "warmup(atomic(constant0(packetPushEnded) + sum(packetLength(packetPushStarted)) - sum(packetLength(packetPulled)) - sum(packetLength(packetRemoved)) - sum(packetLength(packetDropped))))"
attr title "queue bit length, timeavg"
attr unit b
statistic StaticLTE.server.ppp[0].queue queueingTime:histogram
field count 786
field mean 0
field stddev 0
field min 0
field max 0
field sum 0
field sqrsum 0
attr interpolationmode none
attr recordingmode histogram
attr source queueingTime(packetPulled)
attr title "queueing times"
attr unit s
bin	-inf	0
bin	-0.5	0
bin	-0.48	0
bin	-0.46	0
bin	-0.44	0
bin	-0.42	0
bin	-0.4	0
bin	-0.38	0
bin	-0.36	0
bin	-0.34	0
bin	-0.32	0
bin	-0.3	0
bin	-0.28	0
bin	-0.26	0
bin	-0.24	0
bin	-0.22	0
bin	-0.2	0
bin	-0.18	0
bin	-0.16	0
bin	-0.14	0
bin	-0.12	0
bin	-0.1	0
bin	-0.08	0
bin	-0.06	0
bin	-0.04	0
bin	-0.02	0
bin	0	786
bin	0.02	0
bin	0.04	0
bin	0.06	0
bin	0.08	0
bin	0.1	0
bin	0.12	0
bin	0.14	0
bin	0.16	0
bin	0.18	0
bin	0.2	0
bin	0.22	0
bin	0.24	0
bin	0.26	0
bin	0.28	0
bin	0.3	0
bin	0.32	0
bin	0.34	0
bin	0.36	0
bin	0.38	0
bin	0.4	0
bin	0.42	0
bin	0.44	0
bin	0.46	0
bin	0.48	0
bin	0.5	0
scalar StaticLTE.server.ppp[0].queue outgoingPackets:count 786
attr recordingmode count
attr source packetPulled
attr title "outgoing packets, count"
attr unit pk
scalar StaticLTE.server.ppp[0].queue outgoingPacketLengths:sum 427584
attr interpolationmode none
attr recordingmode sum
attr source packetLength(packetPulled)
attr title "outgoing packet lengths, sum"
attr unit b
statistic StaticLTE.server.ppp[0].queue outgoingPacketLengths:histogram
field count 786
field mean 544
field stddev 0
field min 544
field max 544
field sum 427584
field sqrsum 232605696
attr interpolationmode none
attr recordingmode histogram
attr source packetLength(packetPulled)
attr title "outgoing packet lengths"
attr unit b
bin	-inf	0
bin	543	0
bin	544	786
bin	545	0
statistic StaticLTE.server.ppp[0].queue flowQueueingTime:histogram
field count 0
field mean nan
field stddev nan
field min nan
field max nan
field sum 0
field sqrsum 0
attr interpolationmode none
attr recordingmode histogram
attr source queueingTime(demuxFlow(packetPulled))
attr title "flow queueing times"
attr unit s
bin	-inf	0
bin	0	0
bin	1	0
scalar StaticLTE.server.ppp[0].queue incomingPackets:count 786
attr recordingmode count
attr source packetPushStarted
attr title "incoming packets, count"
attr unit pk
scalar StaticLTE.server.ppp[0].queue incomingPacketLengths:sum 427584
attr interpolationmode none
attr recordingmode sum
attr source packetLength(packetPushStarted)
attr title "incoming packet lengths, sum"
attr unit b
statistic StaticLTE.server.ppp[0].queue incomingPacketLengths:histogram
field count 786
field mean 544
field stddev 0
field min 544
field max 544
field sum 427584
field sqrsum 232605696
attr interpolationmode none
attr recordingmode histogram
attr source packetLength(packetPushStarted)
attr title "incoming packet lengths"
attr unit b
bin	-inf	0
bin	543	0
bin	544	786
bin	545	0
scalar StaticLTE.server.ppp[0].queue droppedPacketsQueueOverflow:count 0
attr interpolationmode none
attr recordingmode count
attr source packetDropReasonIsQueueOverflow(packetDropped)
attr title "dropped packets: queue overflow, count"
attr unit pk
scalar StaticLTE.server.ppp[0].queue droppedPacketLengthsQueueOverflow:sum 0
attr interpolationmode none
attr recordingmode sum
attr source packetLength(packetDropReasonIsQueueOverflow(packetDropped))
attr title "dropped packet lengths: queue overflow, sum"
attr unit b
par StaticLTE.server.ppp[0].ppp typename "\"inet.linklayer.ppp.Ppp\""
par StaticLTE.server.ppp[0].ppp interfaceTableModule "\"StaticLTE.server.interfaceTable\""
par StaticLTE.server.ppp[0].ppp displayStringTextFormat "\"rate: %b\\nsent: %s, rcvd: %r\\nqueue: %q, drop: %d\""
par StaticLTE.server.ppp[0].ppp sendRawBytes false
par StaticLTE.server.ppp[0].ppp mtu 4470B
attr unit B
par StaticLTE.server.ppp[0].ppp stopOperationExtraTime -1s
attr unit s
par StaticLTE.server.ppp[0].ppp stopOperationTimeout 2s
attr unit s
scalar StaticLTE.server.ppp[0].ppp txPk:count 786
attr interpolationmode none
attr recordingmode count
attr source packetSentToLower
attr title "packets transmitted, count"
scalar StaticLTE.server.ppp[0].ppp txPk:sum(packetBytes) 58950
attr interpolationmode none
attr recordingmode sum(packetBytes)
attr source packetSentToLower
attr title "packets transmitted, sum(packetBytes)"
scalar StaticLTE.server.ppp[0].ppp rcvdPkFromHl:count 786
attr interpolationmode none
attr recordingmode count
attr source packetReceivedFromUpper
attr title "packets received from higher layer, count"
scalar StaticLTE.server.ppp[0].ppp rcvdPkFromHl:sum(packetBytes) 53448
attr interpolationmode none
attr recordingmode sum(packetBytes)
attr source packetReceivedFromUpper
attr title "packets received from higher layer, sum(packetBytes)"
scalar StaticLTE.server.ppp[0].ppp passedUpPk:count 758
attr interpolationmode none
attr recordingmode count
attr source packetSentToUpper
attr title "packets passed to higher layer, count"
scalar StaticLTE.server.ppp[0].ppp passedUpPk:sum(packetBytes) 51544
attr interpolationmode none
attr recordingmode sum(packetBytes)
attr source packetSentToUpper
attr title "packets passed to higher layer, sum(packetBytes)"
scalar StaticLTE.server.ppp[0].ppp packetDropIncorrectlyReceived:count 0
attr interpolationmode none
attr recordingmode count
attr source packetDropReasonIsIncorrectlyReceived(packetDropped)
attr title "packet drop: incorrectly received, count"
scalar StaticLTE.server.ppp[0].ppp packetDropIncorrectlyReceived:sum(packetBytes) 0
attr interpolationmode none
attr recordingmode sum(packetBytes)
attr source packetDropReasonIsIncorrectlyReceived(packetDropped)
attr title "packet drop: incorrectly received, sum(packetBytes)"
scalar StaticLTE.server.ppp[0].ppp packetDropInterfaceDown:count 0
attr interpolationmode none
attr recordingmode count
attr source packetDropReasonIsInterfaceDown(packetDropped)
attr title "packet drop: interface down, count"
scalar StaticLTE.server.ppp[0].ppp packetDropInterfaceDown:sum(packetBytes) 0
attr interpolationmode none
attr recordingmode sum(packetBytes)
attr source packetDropReasonIsInterfaceDown(packetDropped)
attr title "packet drop: interface down, sum(packetBytes)"
scalar StaticLTE.server.ppp[0].ppp rxPkOk:count 758
attr interpolationmode none
attr recordingmode count
attr source rxPkOk
attr title "packets received OK, count"
scalar StaticLTE.server.ppp[0].ppp rxPkOk:sum(packetBytes) 56850
attr interpolationmode none
attr recordingmode sum(packetBytes)
attr source rxPkOk
attr title "packets received OK, sum(packetBytes)"
scalar StaticLTE.server.ppp[0].ppp transmissionState:timeavg 2.358e-06
attr interpolationmode sample-hold
attr recordingmode timeavg
attr source transmissionStateChanged
attr title "tx state, timeavg"
par StaticLTE.server.ppp[0] typename "\"inet.linklayer.ppp.PppInterface\""
par StaticLTE.server.ppp[0] displayStringTextFormat "\"%a (%i)\\n%m\""
par StaticLTE.server.ppp[0] recordPcap false
par StaticLTE.server.ppp[0] numPcapRecorders 0
par StaticLTE.server.ppp[0] interfaceTableModule "\"StaticLTE.server.interfaceTable\""
scalar StaticLTE.server.ppp[0] packetDropInterfaceDown:count 0
attr interpolationmode none
attr recordingmode count
attr source packetDropReasonIsInterfaceDown(packetDropped)
attr title "packet drops: interface down, count"
scalar StaticLTE.server.ppp[0] packetDropInterfaceDown:sum(packetBytes) 0
attr interpolationmode none
attr recordingmode sum(packetBytes)
attr source packetDropReasonIsInterfaceDown(packetDropped)
attr title "packet drops: interface down, sum(packetBytes)"
scalar StaticLTE.server.ppp[0] packetDropNoCarrier:count 0
attr interpolationmode none
attr recordingmode count
attr source packetDropReasonIsNoCarrier(packetDropped)
attr title "packet drops: no carrier, count"
scalar StaticLTE.server.ppp[0] packetDropNoCarrier:sum(packetBytes) 0
attr interpolationmode none
attr recordingmode sum(packetBytes)
attr source packetDropReasonIsNoCarrier(packetDropped)
attr title "packet drops: no carrier, sum(packetBytes)"
par StaticLTE.server.ipv4.transportIn.channel typename "\"ned.IdealChannel\""
par StaticLTE.server.ipv4.up.out[0].channel typename "\"ned.IdealChannel\""
par StaticLTE.server.ipv4.lp.out[2].channel typename "\"ned.IdealChannel\""
par StaticLTE.server.ipv4.ifIn.channel typename "\"ned.IdealChannel\""
par StaticLTE.server.ipv4.configurator typename "\"inet.networklayer.configurator.ipv4.Ipv4NodeConfigurator\""
par StaticLTE.server.ipv4.configurator interfaceTableModule "\"StaticLTE.server.interfaceTable\""
par StaticLTE.server.ipv4.configurator routingTableModule "\"StaticLTE.server.ipv4.routingTable\""
par StaticLTE.server.ipv4.configurator networkConfiguratorModule "\"configurator\""
par StaticLTE.server.ipv4.configurator configureRoutingTable true
par StaticLTE.server.ipv4.routingTable typename "\"inet.networklayer.ipv4.Ipv4RoutingTable\""
par StaticLTE.server.ipv4.routingTable interfaceTableModule "\"StaticLTE.server.interfaceTable\""
par StaticLTE.server.ipv4.routingTable routerId "\"auto\""
par StaticLTE.server.ipv4.routingTable netmaskRoutes "\"*\""
par StaticLTE.server.ipv4.routingTable forwarding false
par StaticLTE.server.ipv4.routingTable multicastForwarding false
par StaticLTE.server.ipv4.routingTable useAdminDist false
par StaticLTE.server.ipv4.routingTable routingFile "\"\""
par StaticLTE.server.ipv4.natTable typename "\"inet.networklayer.ipv4.Ipv4NatTable\""
par StaticLTE.server.ipv4.natTable networkProtocolModule "\"^.ip\""
par StaticLTE.server.ipv4.natTable config "<config/> at content:1"
par StaticLTE.server.ipv4.up typename "\"inet.common.MessageDispatcher\""
par StaticLTE.server.ipv4.up displayStringTextFormat "\"processed %p pk (%l)\""
par StaticLTE.server.ipv4.up forwardServiceRegistration true
par StaticLTE.server.ipv4.up forwardProtocolRegistration true
par StaticLTE.server.ipv4.igmp typename "\"inet.networklayer.ipv4.Igmpv2\""
par StaticLTE.server.ipv4.igmp interfaceTableModule "\"StaticLTE.server.interfaceTable\""
par StaticLTE.server.ipv4.igmp routingTableModule "\"StaticLTE.server.ipv4.routingTable\""
par StaticLTE.server.ipv4.igmp crcMode "\"declared\""
attr enum declared,computed
par StaticLTE.server.ipv4.igmp enabled true
par StaticLTE.server.ipv4.igmp robustnessVariable 2
par StaticLTE.server.ipv4.igmp queryInterval 125s
attr unit s
par StaticLTE.server.ipv4.igmp queryResponseInterval 10s
attr unit s
par StaticLTE.server.ipv4.igmp groupMembershipInterval 260s
attr unit s
par StaticLTE.server.ipv4.igmp otherQuerierPresentInterval 255s
attr unit s
par StaticLTE.server.ipv4.igmp startupQueryInterval 31.25s
attr unit s
par StaticLTE.server.ipv4.igmp startupQueryCount 2
par StaticLTE.server.ipv4.igmp lastMemberQueryInterval 1s
attr unit s
par StaticLTE.server.ipv4.igmp lastMemberQueryCount 2
par StaticLTE.server.ipv4.igmp unsolicitedReportInterval 10s
attr unit s
par StaticLTE.server.ipv4.icmp typename "\"inet.networklayer.ipv4.Icmp\""
par StaticLTE.server.ipv4.icmp interfaceTableModule "\"StaticLTE.server.interfaceTable\""
par StaticLTE.server.ipv4.icmp routingTableModule "\"StaticLTE.server.ipv4.routingTable\""
par StaticLTE.server.ipv4.icmp crcMode "\"declared\""
attr enum declared,computed
attr mutable ""
par StaticLTE.server.ipv4.icmp quoteLength 8B
attr mutable ""
attr unit B
par StaticLTE.server.ipv4.mp typename "\"inet.common.MessageDispatcher\""
par StaticLTE.server.ipv4.mp displayStringTextFormat "\"processed %p pk (%l)\""
par StaticLTE.server.ipv4.mp forwardServiceRegistration true
par StaticLTE.server.ipv4.mp forwardProtocolRegistration true
par StaticLTE.server.ipv4.ip typename "\"inet.networklayer.ipv4.Ipv4\""
par StaticLTE.server.ipv4.ip interfaceTableModule "\"StaticLTE.server.interfaceTable\""
par StaticLTE.server.ipv4.ip routingTableModule "\"StaticLTE.server.ipv4.routingTable\""
par StaticLTE.server.ipv4.ip arpModule "\"StaticLTE.server.ipv4.arp\""
par StaticLTE.server.ipv4.ip icmpModule "\"StaticLTE.server.ipv4.icmp\""
par StaticLTE.server.ipv4.ip crcMode "\"declared\""
attr enum declared,computed
par StaticLTE.server.ipv4.ip timeToLive 32
par StaticLTE.server.ipv4.ip multicastTimeToLive 32
par StaticLTE.server.ipv4.ip fragmentTimeout 60s
attr unit s
par StaticLTE.server.ipv4.ip limitedBroadcast false
par StaticLTE.server.ipv4.ip directBroadcastInterfaces "\"\""
scalar StaticLTE.server.ipv4.ip packetDropAddressResolutionFailed:count 0
attr interpolationmode none
attr recordingmode count
attr source packetDropReasonIsAddressResolutionFailed(packetDropped)
attr title "packet drop: address resolution failed, count"
scalar StaticLTE.server.ipv4.ip packetDropAddressResolutionFailed:sum(packetBytes) 0
attr interpolationmode none
attr recordingmode sum(packetBytes)
attr source packetDropReasonIsAddressResolutionFailed(packetDropped)
attr title "packet drop: address resolution failed, sum(packetBytes)"
scalar StaticLTE.server.ipv4.ip packetDropHopLimitReached:count 0
attr interpolationmode none
attr recordingmode count
attr source packetDropReasonIsHopLimitReached(packetDropped)
attr title "packet drop: hop limit reached, count"
scalar StaticLTE.server.ipv4.ip packetDropHopLimitReached:sum(packetBytes) 0
attr interpolationmode none
attr recordingmode sum(packetBytes)
attr source packetDropReasonIsHopLimitReached(packetDropped)
attr title "packet drop: hop limit reached, sum(packetBytes)"
scalar StaticLTE.server.ipv4.ip packetDropForwardingDisabled:count 0
attr interpolationmode none
attr recordingmode count
attr source packetDropReasonIsForwardingDisabled(packetDropped)
attr title "packet drop: forwarding disabled, count"
scalar StaticLTE.server.ipv4.ip packetDropForwardingDisabled:sum(packetBytes) 0
attr interpolationmode none
attr recordingmode sum(packetBytes)
attr source packetDropReasonIsForwardingDisabled(packetDropped)
attr title "packet drop: forwarding disabled, sum(packetBytes)"
scalar StaticLTE.server.ipv4.ip packetDropNoInterfaceFound:count 0
attr interpolationmode none
attr recordingmode count
attr source packetDropReasonIsNoInterfaceFound(packetDropped)
attr title "packet drop: no interface found, count"
scalar StaticLTE.server.ipv4.ip packetDropNoInterfaceFound:sum(packetBytes) 0
attr interpolationmode none
attr recordingmode sum(packetBytes)
attr source packetDropReasonIsNoInterfaceFound(packetDropped)
attr title "packet drop: no interface found, sum(packetBytes)"
scalar StaticLTE.server.ipv4.ip packetDropNoRouteFound:count 0
[...]
par StaticLTE.ue[0].cellularNic recordPcap false
par StaticLTE.ue[0].cellularNic numPcapRecorders 0
par StaticLTE.ue[0].cellularNic isWireless true
par StaticLTE.ue[0].cellularNic interfaceTableModule "\"StaticLTE.ue[0].interfaceTable\""
par StaticLTE.ue[0].cellularNic routingTableModule "\"^.ipv4.routingTable\""
par StaticLTE.ue[0].cellularNic LtePdcpRrcType "\"LtePdcpRrcUe\""
par StaticLTE.ue[0].cellularNic LteMacType "\"LteMacUe\""
par StaticLTE.ue[0].cellularNic PacketFlowManagerType "\"PacketFlowManagerUe\""
par StaticLTE.ue[0].cellularNic hasRNISupport false
par StaticLTE.ue[0].cellularNic LtePhyType "\"LtePhyUe\""
par StaticLTE.ue[0].cellularNic nodeType "\"UE\""
par StaticLTE.ue[0].cellularNic processingDelayIn 0s
attr unit s
par StaticLTE.ue[0].cellularNic processingDelayOut 0s
attr unit s
par StaticLTE.ue[0].cellularNic LteChannelModelType "\"LteRealisticChannelModel\""
par StaticLTE.ue[0].cellularNic d2dCapable false
par StaticLTE.ue[0].cellularNic dualConnectivityEnabled false
par StaticLTE.ue[0].cellularNic numCarriers 1
par StaticLTE.ue[0].cellularNic address "\"0A-AA-00-00-00-02\""
attr mutable ""
scalar StaticLTE.ue[0].cellularNic packetDropInterfaceDown:count 0
attr interpolationmode none
attr recordingmode count
attr source packetDropReasonIsInterfaceDown(packetDropped)
attr title "packet drops: interface down, count"
scalar StaticLTE.ue[0].cellularNic packetDropInterfaceDown:sum(packetBytes) 0
attr interpolationmode none
attr recordingmode sum(packetBytes)
attr source packetDropReasonIsInterfaceDown(packetDropped)
attr title "packet drops: interface down, sum(packetBytes)"
scalar StaticLTE.ue[0].cellularNic packetDropNoCarrier:count 0
attr interpolationmode none
attr recordingmode count
attr source packetDropReasonIsNoCarrier(packetDropped)
attr title "packet drops: no carrier, count"
scalar StaticLTE.ue[0].cellularNic packetDropNoCarrier:sum(packetBytes) 0
attr interpolationmode none
attr recordingmode sum(packetBytes)
attr source packetDropReasonIsNoCarrier(packetDropped)
attr title "packet drops: no carrier, sum(packetBytes)"
par StaticLTE.ue[0].encap typename "\"inet.linklayer.ethernet.basic.EthernetEncapsulation\""
par StaticLTE.ue[0].encap registerProtocol true
par StaticLTE.ue[0].encap interfaceTableModule "\"StaticLTE.ue[0].interfaceTable\""
par StaticLTE.ue[0].encap fcsMode "\"declared\""
attr enum declared,computed
par StaticLTE.ue[0].encap stopOperationExtraTime -1s
attr unit s
par StaticLTE.ue[0].encap stopOperationTimeout 2s
attr unit s
scalar StaticLTE.ue[0].encap decapPk:count 0
attr interpolationmode none
attr recordingmode count
attr source decapPk
attr title "packets decapsulated, count"
scalar StaticLTE.ue[0].encap decapPk:sum(packetBytes) 0
attr interpolationmode none
attr recordingmode sum(packetBytes)
attr source decapPk
attr title "packets decapsulated, sum(packetBytes)"
scalar StaticLTE.ue[0].encap encapPk:count 0
attr interpolationmode none
attr recordingmode count
attr source encapPk
attr title "packets encapsulated, count"
scalar StaticLTE.ue[0].encap encapPk:sum(packetBytes) 0
attr interpolationmode none
attr recordingmode sum(packetBytes)
attr source encapPk
attr title "packets encapsulated, sum(packetBytes)"
scalar StaticLTE.ue[0].encap pauseSent:count 0
attr recordingmode count
attr title "pause sent, count"
scalar StaticLTE.ue[0].encap pauseSent:sum 0
attr recordingmode sum
attr title "pause sent, sum"
par StaticLTE.ue[0].ipv4.transportIn.channel typename "\"ned.IdealChannel\""
par StaticLTE.ue[0].ipv4.up.out[0].channel typename "\"ned.IdealChannel\""
par StaticLTE.ue[0].ipv4.lp.out[2].channel typename "\"ned.IdealChannel\""
par StaticLTE.ue[0].ipv4.ifIn.channel typename "\"ned.IdealChannel\""
par StaticLTE.ue[0].ipv4.configurator typename "\"inet.networklayer.configurator.ipv4.Ipv4NodeConfigurator\""
par StaticLTE.ue[0].ipv4.configurator interfaceTableModule "\"StaticLTE.ue[0].interfaceTable\""
par StaticLTE.ue[0].ipv4.configurator routingTableModule "\"StaticLTE.ue[0].ipv4.routingTable\""
par StaticLTE.ue[0].ipv4.configurator networkConfiguratorModule "\"configurator\""
par StaticLTE.ue[0].ipv4.configurator configureRoutingTable true
par StaticLTE.ue[0].ipv4.routingTable typename "\"inet.networklayer.ipv4.Ipv4RoutingTable\""
par StaticLTE.ue[0].ipv4.routingTable interfaceTableModule "\"StaticLTE.ue[0].interfaceTable\""
par StaticLTE.ue[0].ipv4.routingTable routerId "\"auto\""
par StaticLTE.ue[0].ipv4.routingTable netmaskRoutes "\"*\""
par StaticLTE.ue[0].ipv4.routingTable forwarding false
par StaticLTE.ue[0].ipv4.routingTable multicastForwarding false
par StaticLTE.ue[0].ipv4.routingTable useAdminDist false
par StaticLTE.ue[0].ipv4.routingTable routingFile "\"\""
par StaticLTE.ue[0].ipv4.natTable typename "\"inet.networklayer.ipv4.Ipv4NatTable\""
par StaticLTE.ue[0].ipv4.natTable networkProtocolModule "\"^.ip\""
par StaticLTE.ue[0].ipv4.natTable config "<config/> at content:1"
par StaticLTE.ue[0].ipv4.up typename "\"inet.common.MessageDispatcher\""
par StaticLTE.ue[0].ipv4.up displayStringTextFormat "\"processed %p pk (%l)\""
par StaticLTE.ue[0].ipv4.up forwardServiceRegistration true
par StaticLTE.ue[0].ipv4.up forwardProtocolRegistration true
par StaticLTE.ue[0].ipv4.igmp typename "\"inet.networklayer.ipv4.Igmpv2\""
par StaticLTE.ue[0].ipv4.igmp interfaceTableModule "\"StaticLTE.ue[0].interfaceTable\""
par StaticLTE.ue[0].ipv4.igmp routingTableModule "\"StaticLTE.ue[0].ipv4.routingTable\""
par StaticLTE.ue[0].ipv4.igmp crcMode "\"declared\""
attr enum declared,computed
par StaticLTE.ue[0].ipv4.igmp enabled true
par StaticLTE.ue[0].ipv4.igmp robustnessVariable 2
par StaticLTE.ue[0].ipv4.igmp queryInterval 125s
attr unit s
par StaticLTE.ue[0].ipv4.igmp queryResponseInterval 10s
attr unit s
par StaticLTE.ue[0].ipv4.igmp groupMembershipInterval 260s
attr unit s
par StaticLTE.ue[0].ipv4.igmp otherQuerierPresentInterval 255s
attr unit s
par StaticLTE.ue[0].ipv4.igmp startupQueryInterval 31.25s
attr unit s
par StaticLTE.ue[0].ipv4.igmp startupQueryCount 2
par StaticLTE.ue[0].ipv4.igmp lastMemberQueryInterval 1s
attr unit s
par StaticLTE.ue[0].ipv4.igmp lastMemberQueryCount 2
par StaticLTE.ue[0].ipv4.igmp unsolicitedReportInterval 10s
attr unit s
par StaticLTE.ue[0].ipv4.icmp typename "\"inet.networklayer.ipv4.Icmp\""
par StaticLTE.ue[0].ipv4.icmp interfaceTableModule "\"StaticLTE.ue[0].interfaceTable\""
par StaticLTE.ue[0].ipv4.icmp routingTableModule "\"StaticLTE.ue[0].ipv4.routingTable\""
par StaticLTE.ue[0].ipv4.icmp crcMode "\"declared\""
attr enum declared,computed
attr mutable ""
par StaticLTE.ue[0].ipv4.icmp quoteLength 8B
attr mutable ""
attr unit B
par StaticLTE.ue[0].ipv4.mp typename "\"inet.common.MessageDispatcher\""
par StaticLTE.ue[0].ipv4.mp displayStringTextFormat "\"processed %p pk (%l)\""
par StaticLTE.ue[0].ipv4.mp forwardServiceRegistration true
par StaticLTE.ue[0].ipv4.mp forwardProtocolRegistration true
par StaticLTE.ue[0].ipv4.ip typename "\"inet.networklayer.ipv4.Ipv4\""
par StaticLTE.ue[0].ipv4.ip interfaceTableModule "\"StaticLTE.ue[0].interfaceTable\""
par StaticLTE.ue[0].ipv4.ip routingTableModule "\"StaticLTE.ue[0].ipv4.routingTable\""
par StaticLTE.ue[0].ipv4.ip arpModule "\"StaticLTE.ue[0].ipv4.arp\""
par StaticLTE.ue[0].ipv4.ip icmpModule "\"StaticLTE.ue[0].ipv4.icmp\""
par StaticLTE.ue[0].ipv4.ip crcMode "\"declared\""
attr enum declared,computed
par StaticLTE.ue[0].ipv4.ip timeToLive 32
par StaticLTE.ue[0].ipv4.ip multicastTimeToLive 32
par StaticLTE.ue[0].ipv4.ip fragmentTimeout 60s
attr unit s
par StaticLTE.ue[0].ipv4.ip limitedBroadcast false
par StaticLTE.ue[0].ipv4.ip directBroadcastInterfaces "\"\""
scalar StaticLTE.ue[0].ipv4.ip packetDropAddressResolutionFailed:count 0
attr interpolationmode none
attr recordingmode count
attr source packetDropReasonIsAddressResolutionFailed(packetDropped)
attr title "packet drop: address resolution failed, count"
scalar StaticLTE.ue[0].ipv4.ip packetDropAddressResolutionFailed:sum(packetBytes) 0
attr interpolationmode none
attr recordingmode sum(packetBytes)
attr source packetDropReasonIsAddressResolutionFailed(packetDropped)
attr title "packet drop: address resolution failed, sum(packetBytes)"
scalar StaticLTE.ue[0].ipv4.ip packetDropHopLimitReached:count 0
attr interpolationmode none
attr recordingmode count
attr source packetDropReasonIsHopLimitReached(packetDropped)
attr title "packet drop: hop limit reached, count"
scalar StaticLTE.ue[0].ipv4.ip packetDropHopLimitReached:sum(packetBytes) 0
attr interpolationmode none
attr recordingmode sum(packetBytes)
attr source packetDropReasonIsHopLimitReached(packetDropped)
attr title "packet drop: hop limit reached, sum(packetBytes)"
scalar StaticLTE.ue[0].ipv4.ip packetDropForwardingDisabled:count 0
attr interpolationmode none
attr recordingmode count
attr source packetDropReasonIsForwardingDisabled(packetDropped)
attr title "packet drop: forwarding disabled, count"
scalar StaticLTE.ue[0].ipv4.ip packetDropForwardingDisabled:sum(packetBytes) 0
attr interpolationmode none
attr recordingmode sum(packetBytes)
attr source packetDropReasonIsForwardingDisabled(packetDropped)
attr title "packet drop: forwarding disabled, sum(packetBytes)"
scalar StaticLTE.ue[0].ipv4.ip packetDropNoInterfaceFound:count 0
attr interpolationmode none
attr recordingmode count
attr source packetDropReasonIsNoInterfaceFound(packetDropped)
attr title "packet drop: no interface found, count"
scalar StaticLTE.ue[0].ipv4.ip packetDropNoInterfaceFound:sum(packetBytes) 0
attr interpolationmode none
attr recordingmode sum(packetBytes)
attr source packetDropReasonIsNoInterfaceFound(packetDropped)
attr title "packet drop: no interface found, sum(packetBytes)"
scalar StaticLTE.ue[0].ipv4.ip packetDropNoRouteFound:count 0
attr interpolationmode none
attr recordingmode count
attr source packetDropReasonIsNoRouteFound(packetDropped)
attr title "packet drop: no route found, count"
scalar StaticLTE.ue[0].ipv4.ip packetDropNoRouteFound:sum(packetBytes) 0
attr interpolationmode none
attr recordingmode sum(packetBytes)
attr source packetDropReasonIsNoRouteFound(packetDropped)
attr title "packet drop: no route found, sum(packetBytes)"
scalar StaticLTE.ue[0].ipv4.ip packetDropUndefined:count 0
attr interpolationmode none
attr recordingmode count
attr source packetDropReasonIsUndefined(packetDropped)
attr title "packet drop: undefined, count"
scalar StaticLTE.ue[0].ipv4.ip packetDropUndefined:sum(packetBytes) 0
attr interpolationmode none
attr recordingmode sum(packetBytes)
attr source packetDropReasonIsUndefined(packetDropped)
attr title "packet drop: undefined, sum(packetBytes)"
par StaticLTE.ue[0].ipv4.arp typename "\"inet.networklayer.arp.ipv4.Arp\""
par StaticLTE.ue[0].ipv4.arp interfaceTableModule "\"StaticLTE.ue[0].interfaceTable\""
par StaticLTE.ue[0].ipv4.arp routingTableModule "\"StaticLTE.ue[0].ipv4.routingTable\""
par StaticLTE.ue[0].ipv4.arp retryTimeout 1s
attr unit s
par StaticLTE.ue[0].ipv4.arp retryCount 3
par StaticLTE.ue[0].ipv4.arp cacheTimeout 120s
attr unit s
par StaticLTE.ue[0].ipv4.arp proxyArpInterfaces "\"*\""
scalar StaticLTE.ue[0].ipv4.arp arpReplySent:count 0
attr recordingmode count
attr source arpReplySent
attr title "ARP replies sent, count"
scalar StaticLTE.ue[0].ipv4.arp arpReplySent:sum(packetBytes) 0
attr recordingmode sum(packetBytes)
attr source arpReplySent
attr title "ARP replies sent, sum(packetBytes)"
scalar StaticLTE.ue[0].ipv4.arp arpRequestSent:count 0
attr recordingmode count
attr source arpRequestSent
attr title "ARP request sent, count"
scalar StaticLTE.ue[0].ipv4.arp arpRequestSent:sum(packetBytes) 0
attr recordingmode sum(packetBytes)
attr source arpRequestSent
attr title "ARP request sent, sum(packetBytes)"
scalar StaticLTE.ue[0].ipv4.arp arpResolutionFailed:count 0
attr recordingmode count
attr title "ARP failed resolutions, count"
scalar StaticLTE.ue[0].ipv4.arp arpResolutionCompleted:count 0
attr recordingmode count
attr title "ARP completed resolutions, count"
scalar StaticLTE.ue[0].ipv4.arp arpResolutionInitiated:count 0
attr recordingmode count
attr title "ARP initiated resolutions, count"
par StaticLTE.ue[0].ipv4.lp typename "\"inet.common.MessageDispatcher\""
par StaticLTE.ue[0].ipv4.lp displayStringTextFormat "\"processed %p pk (%l)\""
par StaticLTE.ue[0].ipv4.lp forwardServiceRegistration true
par StaticLTE.ue[0].ipv4.lp forwardProtocolRegistration true
par StaticLTE.ue[0].ipv4 typename "\"inet.networklayer.ipv4.Ipv4NetworkLayer\""
par StaticLTE.ue[0].ipv4 forwarding false
par StaticLTE.ue[0].ipv4 multicastForwarding false
par StaticLTE.ue[0].ipv4 interfaceTableModule "\"StaticLTE.ue[0].interfaceTable\""
par StaticLTE.ue[0].ipv4 displayStringTextFormat "\"%i\""
par StaticLTE.ue[0].udp typename "\"inet.transportlayer.udp.Udp\""
par StaticLTE.ue[0].udp interfaceTableModule "\"StaticLTE.ue[0].interfaceTable\""
par StaticLTE.ue[0].udp icmpModule "\"^.ipv4.icmp\""
par StaticLTE.ue[0].udp icmpv6Module "\"^.ipv6.icmpv6\""
par StaticLTE.ue[0].udp crcMode "\"declared\""
attr enum disabled,declared,computed
par StaticLTE.ue[0].udp defaultMulticastLoop true
scalar StaticLTE.ue[0].udp packetReceived:count 786
attr interpolationmode none
attr recordingmode count
attr source packetReceived
attr title "packets received, count"
scalar StaticLTE.ue[0].udp packetReceived:sum(packetBytes) 37728
attr interpolationmode none
attr recordingmode sum(packetBytes)
attr source packetReceived
attr title "packets received, sum(packetBytes)"
scalar StaticLTE.ue[0].udp packetSent:count 758
attr interpolationmode none
attr recordingmode count
attr source packetSent
attr title "packets sent, count"
scalar StaticLTE.ue[0].udp packetSent:sum(packetBytes) 36384
attr interpolationmode none
attr recordingmode sum(packetBytes)
attr source packetSent
attr title "packets sent, sum(packetBytes)"
scalar StaticLTE.ue[0].udp passedUpPk:count 786
attr interpolationmode none
attr recordingmode count
attr source packetSentToUpper
attr title "packets passed up, count"
scalar StaticLTE.ue[0].udp droppedPkWrongPort:count 0
attr interpolationmode none
attr recordingmode count
attr source packetDropReasonIsNoPortFound(packetDropped)
attr title "packets dropped (wrong port), count"
scalar StaticLTE.ue[0].udp droppedPkBadChecksum:count 0
attr interpolationmode none
attr recordingmode count
attr source packetDropReasonIsIncorrectlyReceived(packetDropped)
attr title "packets dropped (checksum error), count"
par StaticLTE.ue[0].tcp typename "\"inet.transportlayer.tcp.Tcp\""
par StaticLTE.ue[0].tcp crcMode "\"declared\""
attr enum declared,computed
par StaticLTE.ue[0].tcp advertisedWindow 7504
par StaticLTE.ue[0].tcp delayedAcksEnabled false
par StaticLTE.ue[0].tcp nagleEnabled true
par StaticLTE.ue[0].tcp limitedTransmitEnabled false
par StaticLTE.ue[0].tcp increasedIWEnabled false
par StaticLTE.ue[0].tcp sackSupport false
par StaticLTE.ue[0].tcp windowScalingSupport false
par StaticLTE.ue[0].tcp windowScalingFactor -1
par StaticLTE.ue[0].tcp timestampSupport false
par StaticLTE.ue[0].tcp mss 536
par StaticLTE.ue[0].tcp msl 120s
attr unit s
par StaticLTE.ue[0].tcp tcpAlgorithmClass "\"TcpReno\""
par StaticLTE.ue[0].tcp useDataNotification false
par StaticLTE.ue[0].tcp dupthresh 3
par StaticLTE.ue[0].tcp initialSsthresh 4294967295
par StaticLTE.ue[0].tcp stopOperationExtraTime 0s
attr unit s
par StaticLTE.ue[0].tcp stopOperationTimeout 2s
attr unit s
par StaticLTE.ue[0].tcp ecnWillingness false
par StaticLTE.ue[0].tcp dctcpGamma 0.0625
par StaticLTE.ue[0].app[0] typename "\"simu5g.apps.voip.VoIPReceiver\""
par StaticLTE.ue[0].app[0] localPort 3000
par StaticLTE.ue[0].app[0] emodel_Ie_ 5
par StaticLTE.ue[0].app[0] emodel_Bpl_ 10
par StaticLTE.ue[0].app[0] emodel_A_ 5
par StaticLTE.ue[0].app[0] emodel_Ro_ 93.2
par StaticLTE.ue[0].app[0] playout_delay 0s
attr unit s
par StaticLTE.ue[0].app[0] dim_buffer 20
par StaticLTE.ue[0].app[0] sampling_time 0.02s
attr unit s
scalar StaticLTE.ue[0].app[0] voIPReceivedThroughput:mean 1460.0146255866
attr recordingmode mean
attr source voIPReceivedThroughput
attr title "Throughput received at the application level, mean"
attr unit Bps
scalar StaticLTE.ue[0].app[0] voIPTaildropLoss:mean 0
attr recordingmode mean
attr source voIPTaildropLoss
attr title "VoIP Tail Drop Loss, mean"
attr unit ratio
scalar StaticLTE.ue[0].app[0] voIPMos:mean 4.409285824
attr recordingmode mean
attr source voIPMos
attr title "VoIP Mos Signal, mean"
attr unit MOS
scalar StaticLTE.ue[0].app[0] voIPJitter:mean nan
attr recordingmode mean
attr source voIPJitter
attr title "VoIP Playout Loss, mean"
attr unit s
scalar StaticLTE.ue[0].app[0] voIPPlayoutLoss:mean 0
attr recordingmode mean
attr source voIPPlayoutLoss
attr title "VoIP Playout Loss, mean"
attr unit ratio
scalar StaticLTE.ue[0].app[0] voIPPlayoutDelay:mean 0
attr recordingmode mean
attr source voIPPlayoutDelay
attr title "VoIP Playout Delay, mean"
attr unit s
scalar StaticLTE.ue[0].app[0] voIPFrameDelay:mean 0.0043538497840993
attr recordingmode mean
attr source voIPFrameDelay
attr title "VoIP Frame Delay, mean"
attr unit s
scalar StaticLTE.ue[0].app[0] voIPFrameLoss:mean 0
attr recordingmode mean
attr source voIPFrameLoss
attr title "VoIP Frame Loss, mean"
attr unit ratio
par StaticLTE.ue[0].app[1] typename "\"simu5g.apps.voip.VoIPSender\""
par StaticLTE.ue[0].app[1] localPort 4088
par StaticLTE.ue[0].app[1] destPort 4000
par StaticLTE.ue[0].app[1] destAddress "\"server\""
par StaticLTE.ue[0].app[1] PacketSize 40
par StaticLTE.ue[0].app[1] shape_talk 0.824
par StaticLTE.ue[0].app[1] scale_talk 1.423
par StaticLTE.ue[0].app[1] shape_sil 1.089
par StaticLTE.ue[0].app[1] scale_sil 0.899
par StaticLTE.ue[0].app[1] is_talk true
par StaticLTE.ue[0].app[1] sampling_time 0.02s
attr unit s
par StaticLTE.ue[0].app[1] startTime 0.00732654s
attr unit s
par StaticLTE.ue[0].app[1] silences true
par StaticLTE.ue[0].app[1] tos -1
scalar StaticLTE.ue[0].app[1] voIPGeneratedThroughput:mean 1577.8753575255
attr recordingmode mean
attr source voIPGeneratedThroughput
attr title "Throughput generated by the application, mean"
attr unit Bps
par StaticLTE.ue[0].at typename "\"inet.common.MessageDispatcher\""
par StaticLTE.ue[0].at displayStringTextFormat "\"processed %p pk (%l)\""
par StaticLTE.ue[0].at forwardServiceRegistration true
par StaticLTE.ue[0].at forwardProtocolRegistration true
par StaticLTE.ue[0].tn typename "\"inet.common.MessageDispatcher\""
par StaticLTE.ue[0].tn displayStringTextFormat "\"processed %p pk (%l)\""
par StaticLTE.ue[0].tn forwardServiceRegistration true
par StaticLTE.ue[0].tn forwardProtocolRegistration true
par StaticLTE.ue[0].nl typename "\"inet.common.MessageDispatcher\""
par StaticLTE.ue[0].nl displayStringTextFormat "\"processed %p pk (%l)\""
par StaticLTE.ue[0].nl forwardServiceRegistration true
par StaticLTE.ue[0].nl forwardProtocolRegistration true
par StaticLTE.ue[0] typename "\"simu5g.nodes.Ue\""
par StaticLTE.ue[0] numApps 2
par StaticLTE.ue[0] hasUdp true
par StaticLTE.ue[0] hasTcp true
par StaticLTE.ue[0] hasSctp false
par StaticLTE.ue[0] nodeType "\"UE\""
par StaticLTE.ue[0] masterId 1
attr mutable ""
par StaticLTE.ue[0] macNodeId 1025
attr mutable ""
par StaticLTE.ue[0] macCellId 1
attr mutable ""
par StaticLTE.ue[0] nicType "\"LteNicUe\""
par StaticLTE.ue[0] hasIpv4 true
par StaticLTE.ue[0] hasIpv6 false
par StaticLTE.ue[0] numEthInterfaces 0
par StaticLTE.ue[0] extHostAddress "\"\""
par StaticLTE.ue[0] numLoInterfaces 1
par StaticLTE.ue[0] numPcapRecorders 0
par StaticLTE.ue[0] hasRNISupport false
par StaticLTE typename "\"abcd.simulations.StaticLTE\""
par StaticLTE numUe 1

